32
Coordinates from ORCA-job data/geom_opt/603962/603962 E -1067.326989616103
  C          -1.73399819847461     -3.71790417867384      0.85176767987869
  C          -1.32191376917464     -3.85444101845961     -0.47568401399577
  C          -0.72923759766920     -2.77316704273888     -1.13682593943742
  C          -0.53802179128082     -1.54879672911576     -0.47775834396825
  C          -0.95530998873330     -1.42118546867964      0.85958243355509
  C          -1.55052651469612     -2.49929160797396      1.51657288411653
  P           0.27350160732140     -0.18334783304294     -1.42725237795321
  C          -0.78975992886456      1.27550598787024     -0.96134163479718
  C          -1.52934792927102      1.90514059975202     -1.97244888064444
  C          -2.32555813989155      3.00483924997619     -1.64381295331327
  C          -2.34931716038993      3.44092738519134     -0.31927656122395
  C          -1.57723588436767      2.74713118247044      0.61998114979652
  N          -0.82110168905729      1.69446296109157      0.31127815812876
  C           1.73968977138110      0.20246782239722     -0.36353469678007
  C           2.32269295548668     -0.71661112550866      0.52171895798015
  C           3.47423377720993     -0.33714012009713      1.21384895956418
  C           4.00111073720401      0.93812929680129      1.00292086587430
  C           3.35157932432568      1.77645168697064      0.09001639670539
  N           2.25881399877151      1.41873744682097     -0.58267750627553
  H          -2.19936955013600     -4.56029301217302      1.37046002959889
  H          -1.46341569334556     -4.80298847844439     -1.00033535787315
  H          -0.40996192474767     -2.87790925005876     -2.17758675007149
  H          -0.81198612717253     -0.46749026733657      1.37180560487050
  H          -1.87374534285222     -2.38977470196861      2.55538120899516
  H          -1.46865982533768      1.53725869815076     -2.99904433952216
  H          -2.91143125304570      3.51624993928044     -2.41224692726343
  H          -2.95019962870894      4.30040270717719     -0.01335096013030
  H          -1.57383917397699      3.05988252899576      1.67105952909198
  H           1.87609657862579     -1.70039507238995      0.67260097048703
  H           3.94996982059221     -1.02867842513377      1.91470303833694
  H           4.89672814235675      1.27862544510741      1.52746976282687
  H           3.73952339791895      2.78320239374201     -0.10799338655736
