43
Coordinates from ORCA-job data/geom_opt/82101/82101 E -1153.083322137999
  C          -1.31376308775547      4.94903677177367      1.34541188568655
  C          -0.48206989043390      4.17534312458852      2.16187756948033
  C           0.20563174542213      3.08288403955625      1.63067587307665
  C           0.08128210855081      2.74407497342955      0.27247561588460
  C          -0.75927640547170      3.52597475703192     -0.53488897139063
  C          -1.45014471179519      4.62001727869969     -0.00556087597411
  C           0.78806895926784      1.53709988178824     -0.28311724006314
  P          -0.01736734903195     -0.05417347854077      0.31165249803852
  C           0.91657545085132     -1.27735595608464     -0.76858881894026
  C           2.35338752860287     -1.39761703942497     -0.33733416937689
  C           2.68835092584722     -2.06155123725774      0.85511565373851
  C           4.01481268336271     -2.13945082756156      1.28285376460373
  C           5.03419566067825     -1.54913038851883      0.52832114108260
  C           4.71420126687960     -0.88162452755278     -0.65661397362508
  C           3.38494451166243     -0.80624957920557     -1.08293957248220
  C          -1.61734953605607      0.04211491175694     -0.67163338562314
  C          -2.40281502288519     -1.23670265094070     -0.55915244682924
  C          -2.45622746602206     -2.14935582898821     -1.62403121515682
  C          -3.14952140289504     -3.35710311500478     -1.50133634169417
  C          -3.80030133295829     -3.67431335061008     -0.30640403450455
  C          -3.75126790605642     -2.77502887649406      0.76404126697814
  C          -3.05723405926956     -1.57036913643270      0.63889544898645
  H          -1.85213423475273      5.80446354952241      1.76107624737437
  H          -0.36879476192114      4.42476680957565      3.22019414390601
  H           0.84734680296260      2.47610766728934      2.27542998114399
  H          -0.86959693780659      3.27461325462039     -1.59359362262042
  H          -2.09663945635824      5.21812875915793     -0.65311865383760
  H           0.80151565361944      1.55999851756356     -1.38558506922041
  H           1.83434023165800      1.49778332841135      0.06047326626516
  H           0.84580609609051     -0.97305610692779     -1.82623179810055
  H           0.39078828535517     -2.24026814384623     -0.66566908949596
  H           1.89429157393844     -2.51695922646628      1.45323338496140
  H           4.25514768848953     -2.66413238992981      2.21130079236691
  H           6.07282132421739     -1.61029197379032      0.86281975925781
  H           5.50274102633592     -0.41754113667672     -1.25484024954002
  H           3.14161198274232     -0.28345920613264     -2.01232252988184
  H          -2.18220824565330      0.89202693161945     -0.25590639367184
  H          -1.39408451734235      0.27659578185575     -1.72582768179821
  H          -1.94996279843821     -1.90663602714234     -2.56264165400270
  H          -3.18200523036322     -4.05195911410315     -2.34464249810690
  H          -4.34390317968371     -4.61735157664648     -0.20876512191242
  H          -4.25714905277803     -3.01425301669711      1.70315202096552
  H          -3.01404392080613     -0.87509642726435      1.48174509405187
