43
Coordinates from ORCA-job data/geom_opt/82101/82101 E -1153.073252041505
  C      -1.279596      4.723808      1.550721
  C      -0.356288      3.920945      2.216479
  C       0.306080      2.901389      1.530687
  C       0.046140      2.663062      0.169986
  C      -0.877151      3.491291     -0.489178
  C      -1.538649      4.510897      0.198465
  C       0.778650      1.581586     -0.583351
  P       0.002994      0.010120     -0.057405
  C       0.938399     -1.197124     -1.065049
  C       2.293548     -1.301089     -0.412026
  C       2.472319     -2.035958      0.772831
  C       3.734065     -2.150285      1.358885
  C       4.836936     -1.541495      0.764434
  C       4.680342     -0.821470     -0.417969
  C       3.418846     -0.705834     -1.005577
  C      -1.580587      0.077536     -0.971457
  C      -2.294029     -1.207413     -0.634436
  C      -2.381608     -2.243451     -1.578831
  C      -3.063578     -3.424929     -1.280406
  C      -3.675897     -3.583683     -0.039077
  C      -3.611082     -2.560563      0.903973
  C      -2.930004     -1.378748      0.607359
  H      -1.795133      5.516860      2.085531
  H      -0.150224      4.086557      3.270521
  H       1.026031      2.282886      2.063997
  H      -1.088975      3.345821     -1.545862
  H      -2.255331      5.140590     -0.322021
  H       0.706753      1.732523     -1.665842
  H       1.840124      1.629838     -0.320524
  H       1.023848     -0.880503     -2.110127
  H       0.473198     -2.187943     -1.064977
  H       1.619927     -2.518350      1.248249
  H       3.853774     -2.714842      2.279668
  H       5.818634     -1.630568      1.221669
  H       5.541750     -0.350763     -0.884299
  H       3.319223     -0.144821     -1.931834
  H      -2.206939      0.918249     -0.656785
  H      -1.427080      0.175639     -2.051527
  H      -1.915996     -2.137032     -2.555813
  H      -3.118499     -4.221257     -2.017899
  H      -4.205820     -4.503514      0.192923
  H      -4.090130     -2.680570      1.871964
  H      -2.888984     -0.587392      1.353930
43
Coordinates from ORCA-job data/geom_opt/82101/82101 E -1153.080326778746
  C      -1.296895      4.829162      1.481440
  C      -0.402190      4.032965      2.201249
  C       0.272935      2.986956      1.567535
  C       0.067758      2.718723      0.204533
  C      -0.834617      3.526379     -0.506163
  C      -1.513244      4.573033      0.126129
  C       0.787373      1.571878     -0.475155
  P      -0.005066     -0.011065      0.072956
  C       0.930489     -1.235836     -0.955853
  C       2.330342     -1.355299     -0.389096
  C       2.562433     -2.052549      0.807473
  C       3.849633     -2.150317      1.341427
  C       4.928566     -1.550002      0.687149
  C       4.713094     -0.851183     -0.502173
  C       3.423686     -0.756413     -1.035373
  C      -1.603530      0.068233     -0.861174
  C      -2.358478     -1.221876     -0.614979
  C      -2.438065     -2.211443     -1.608012
  C      -3.118693     -3.410533     -1.374092
  C      -3.733040     -3.637001     -0.141007
  C      -3.661189     -2.661314      0.856719
  C      -2.979050     -1.465201      0.620946
  H      -1.825369      5.647450      1.977367
  H      -0.228833      4.226205      3.262849
  H       0.963333      2.365046      2.143572
  H      -1.013128      3.339758     -1.568662
  H      -2.211272      5.192731     -0.442604
  H       0.748924      1.684629     -1.571611
  H       1.849370      1.589186     -0.186664
  H       0.965092     -0.931016     -2.015241
  H       0.440523     -2.220700     -0.919561
  H       1.725014     -2.518804      1.333377
  H       4.010106     -2.697631      2.273679
  H       5.935691     -1.626212      1.105136
  H       5.552997     -0.379953     -1.019097
  H       3.271372     -0.207441     -1.968646
  H      -2.210899      0.916530     -0.510691
  H      -1.432608      0.218806     -1.940323
  H      -1.964116     -2.048002     -2.579763
  H      -3.171863     -4.169476     -2.158878
  H      -4.266472     -4.573053      0.043607
  H      -4.138168     -2.832011      1.825086
  H      -2.921942     -0.713340      1.412590
43
Coordinates from ORCA-job data/geom_opt/82101/82101 E -1153.082868574329
  C      -1.316064      4.923653      1.387868
  C      -0.453226      4.147501      2.170052
  C       0.232065      3.070272      1.603700
  C       0.075482      2.751133      0.245773
  C      -0.796280      3.532703     -0.526874
  C      -1.486047      4.611544      0.035919
  C       0.786756      1.555086     -0.347312
  P      -0.010487     -0.035232      0.236509
  C       0.922076     -1.258559     -0.830708
  C       2.352427     -1.390596     -0.356546
  C       2.646251     -2.073064      0.834333
  C       3.959109     -2.165433      1.301956
  C       5.004985     -1.568725      0.588678
  C       4.724399     -0.879983     -0.594966
  C       3.408147     -0.791754     -1.059910
  C      -1.613659      0.053976     -0.726490
  C      -2.393610     -1.233247     -0.576612
  C      -2.461376     -2.165649     -1.622438
  C      -3.147058     -3.374668     -1.465640
  C      -3.775262     -3.671870     -0.252749
  C      -3.709797     -2.751631      0.799685
  C      -3.022360     -1.546475      0.638693
  H      -1.852610      5.767770      1.830700
  H      -0.313164      4.382440      3.229345
  H       0.895462      2.460992      2.224812
  H      -0.935566      3.296312     -1.586598
  H      -2.157642      5.211608     -0.585162
  H       0.781490      1.615787     -1.450464
  H       1.842040      1.542983     -0.028304
  H       0.897465     -0.953477     -1.892229
  H       0.407478     -2.231035     -0.760228
  H       1.832830     -2.532324      1.404020
  H       4.167165     -2.706498      2.229786
  H       6.033437     -1.641128      0.954134
  H       5.534042     -0.409971     -1.161028
  H       3.198396     -0.250740     -1.988166
  H      -2.197885      0.902991     -0.334570
  H      -1.418416      0.261194     -1.794041
  H      -1.972878     -1.941682     -2.576108
  H      -3.191707     -4.086411     -2.295262
  H      -4.313710     -4.615716     -0.127293
  H      -4.197240     -2.974301      1.753480
  H      -2.965459     -0.837775      1.470257
43
Coordinates from ORCA-job data/geom_opt/82101/82101 E -1153.083243524272
  C      -1.312647      4.954114      1.341362
  C      -0.476175      4.184162      2.157319
  C       0.210863      3.090387      1.627223
  C       0.082002      2.747226      0.271259
  C      -0.763217      3.523488     -0.535444
  C      -1.453968      4.618932     -0.008212
  C       0.788976      1.534511     -0.280810
  P      -0.018174     -0.053737      0.315569
  C       0.912197     -1.278357     -0.763317
  C       2.353314     -1.399672     -0.334677
  C       2.687682     -2.066526      0.855492
  C       4.014247     -2.145466      1.283577
  C       5.034214     -1.551689      0.531626
  C       4.713380     -0.879598     -0.651187
  C       3.383711     -0.804022     -1.077098
  C      -1.617137      0.044517     -0.666185
  C      -2.404671     -1.237276     -0.558967
  C      -2.464305     -2.143123     -1.628303
  C      -3.156378     -3.352236     -1.508874
  C      -3.799317     -3.677327     -0.311116
  C      -3.742454     -2.783907      0.764486
  C      -3.049131     -1.578273      0.641651
  H      -1.850479      5.810840      1.755842
  H      -0.358266      4.437446      3.214585
  H       0.855275      2.486351      2.272294
  H      -0.877961      3.267635     -1.593022
  H      -2.104268      5.213405     -0.655831
  H       0.804267      1.566449     -1.383974
  H       1.836911      1.504810      0.059836
  H       0.849078     -0.980775     -1.824259
  H       0.393379     -2.245740     -0.663499
  H       1.893732     -2.523879      1.452746
  H       4.253899     -2.673865      2.210516
  H       6.073125     -1.613649      0.866083
  H       5.501751     -0.412260     -1.247673
  H       3.140284     -0.277504     -2.004854
  H      -2.189665      0.892120     -0.255173
  H      -1.403161      0.278045     -1.723497
  H      -1.963826     -1.895020     -2.569093
  H      -3.194000     -4.042123     -2.356434
  H      -4.342292     -4.621281     -0.215451
  H      -4.241637     -3.028292      1.706275
  H      -2.999158     -0.888844      1.489209
43
Coordinates from ORCA-job data/geom_opt/82101/82101 E -1153.083306068394
  C      -1.313403      4.959271      1.334556
  C      -0.482923      4.189363      2.156029
  C       0.204317      3.093321      1.631555
  C       0.080985      2.747306      0.275132
  C      -0.758235      3.524871     -0.537233
  C      -1.448676      4.622520     -0.014816
  C       0.787403      1.535151     -0.272021
  P      -0.018432     -0.054775      0.326171
  C       0.913188     -1.278571     -0.755375
  C       2.353229     -1.399978     -0.332061
  C       2.693040     -2.065192      0.858257
  C       4.021362     -2.143999      1.280101
  C       5.037802     -1.553125      0.521790
  C       4.712440     -0.884214     -0.661107
  C       3.381271     -0.807962     -1.081334
  C      -1.618250      0.042033     -0.657319
  C      -2.404013     -1.238383     -0.554753
  C      -2.461252     -2.141041     -1.627424
  C      -3.154131     -3.349907     -1.513254
  C      -3.800398     -3.678348     -0.318697
  C      -3.747030     -2.788704      0.759740
  C      -3.053358     -1.582970      0.642971
  H      -1.851483      5.817487      1.744831
  H      -0.370098      4.444491      3.213098
  H       0.845082      2.489607      2.280166
  H      -0.867662      3.267491     -1.594642
  H      -2.094165      5.217345     -0.666455
  H       0.804806      1.558192     -1.374622
  H       1.833480      1.499508      0.072775
  H       0.841422     -0.978406     -1.814303
  H       0.389698     -2.242674     -0.650994
  H       1.901450     -2.521065      1.459335
  H       4.265329     -2.670014      2.206921
  H       6.077917     -1.614979      0.851517
  H       5.498349     -0.419533     -1.262395
  H       3.133740     -0.284091     -2.009060
  H      -2.186476      0.889218     -0.240242
  H      -1.398748      0.281242     -1.711432
  H      -1.958262     -1.889635     -2.565583
  H      -3.189648     -4.036952     -2.362865
  H      -4.343616     -4.622275     -0.227652
  H      -4.249243     -3.036236      1.698743
  H      -3.006809     -0.895388      1.491952
43
Coordinates from ORCA-job data/geom_opt/82101/82101 E -1153.083319935295
  C      -1.312740      4.953631      1.340753
  C      -0.482869      4.180979      2.159985
  C       0.204228      3.086531      1.632192
  C       0.081059      2.744663      0.274515
  C      -0.757756      3.525513     -0.535602
  C      -1.447901      4.621551     -0.009556
  C       0.787248      1.535697     -0.277225
  P      -0.018325     -0.055284      0.318416
  C       0.915877     -1.278457     -0.761726
  C       2.353804     -1.398110     -0.334385
  C       2.692068     -2.061785      0.857439
  C       4.019655     -2.139316      1.281627
  C       5.036876     -1.548973      0.524253
  C       4.713553     -0.881810     -0.659924
  C       3.383209     -0.806653     -1.082779
  C      -1.617489      0.040435     -0.666382
  C      -2.403506     -1.238244     -0.557755
  C      -2.458969     -2.146822     -1.625915
  C      -3.153209     -3.354356     -1.506804
  C      -3.802766     -3.675549     -0.312326
  C      -3.751625     -2.780391      0.761433
  C      -3.056726     -1.575897      0.640027
  H      -1.850685      5.810570      1.753723
  H      -0.370517      4.432740      3.217817
  H       0.844724      2.480662      2.278959
  H      -0.867077      3.271715     -1.593787
  H      -2.092985      5.218807     -0.659256
  H       0.802991      1.557731     -1.379640
  H       1.833141      1.496825      0.067575
  H       0.843239     -0.976326     -1.819820
  H       0.391059     -2.241717     -0.657097
  H       1.899697     -2.517411      1.457566
  H       4.262519     -2.663773      2.209510
  H       6.076369     -1.609792      0.855957
  H       5.500368     -0.417702     -1.260345
  H       3.137190     -0.284124     -2.011549
  H      -2.183199      0.889903     -0.250846
  H      -1.394180      0.276355     -1.720200
  H      -1.953498     -1.900972     -2.564091
  H      -3.187288     -4.045972     -2.352671
  H      -4.346978     -4.618482     -0.217603
  H      -4.256510     -3.022698      1.700257
  H      -3.012075     -0.883695      1.485281
43
Coordinates from ORCA-job data/geom_opt/82101/82101 E -1153.083321838504
  C      -1.313579      4.951246      1.344769
  C      -0.481327      4.178009      2.161050
  C       0.205907      3.085217      1.629978
  C       0.080512      2.745608      0.272011
  C      -0.760651      3.527096     -0.535154
  C      -1.451011      4.621467     -0.005872
  C       0.786857      1.538441     -0.283422
  P      -0.017427     -0.053023      0.312265
  C       0.916544     -1.276053     -0.768082
  C       2.353131     -1.397672     -0.336858
  C       2.687588     -2.062694      0.855201
  C       4.013972     -2.141886      1.282888
  C       5.033790     -1.551902      0.528727
  C       4.714346     -0.883400     -0.655750
  C       3.385181     -0.806642     -1.082074
  C      -1.617747      0.041944     -0.670500
  C      -2.402340     -1.237344     -0.558577
  C      -2.456490     -2.148785     -1.624464
  C      -3.149213     -3.356917     -1.502415
  C      -3.798647     -3.675756     -0.307236
  C      -3.748882     -2.777743      0.764213
  C      -3.055434     -1.572699      0.639808
  H      -1.851602      5.806922      1.760329
  H      -0.367251      4.428034      3.219124
  H       0.848143      2.478812      2.274545
  H      -0.871804      3.275103     -1.593604
  H      -2.097967      5.219238     -0.653264
  H       0.799843      1.560999     -1.385885
  H       1.833370      1.499418      0.059463
  H       0.846093     -0.971471     -1.825646
  H       0.390066     -2.238670     -0.665787
  H       1.893169     -2.517931      1.452948
  H       4.253894     -2.667342      2.210988
  H       6.072356     -1.614082      0.863173
  H       5.503255     -0.419573     -1.253667
  H       3.142241     -0.283026     -2.011071
  H      -2.183171      0.891372     -0.254508
  H      -1.395065      0.277029     -1.724666
  H      -1.951202     -1.904785     -2.563251
  H      -3.182282     -4.050799     -2.346488
  H      -4.341763     -4.619117     -0.210166
  H      -4.253695     -3.018282      1.703545
  H      -3.011709     -0.878358      1.483380
43
Coordinates from ORCA-job data/geom_opt/82101/82101 E -1153.083322137999
  C      -1.313763      4.949037      1.345412
  C      -0.482070      4.175343      2.161878
  C       0.205632      3.082884      1.630676
  C       0.081282      2.744075      0.272476
  C      -0.759276      3.525975     -0.534889
  C      -1.450145      4.620017     -0.005561
  C       0.788069      1.537100     -0.283117
  P      -0.017367     -0.054173      0.311652
  C       0.916575     -1.277356     -0.768589
  C       2.353388     -1.397617     -0.337334
  C       2.688351     -2.061551      0.855116
  C       4.014813     -2.139451      1.282854
  C       5.034196     -1.549130      0.528321
  C       4.714201     -0.881625     -0.656614
  C       3.384945     -0.806250     -1.082940
  C      -1.617350      0.042115     -0.671633
  C      -2.402815     -1.236703     -0.559152
  C      -2.456227     -2.149356     -1.624031
  C      -3.149521     -3.357103     -1.501336
  C      -3.800301     -3.674313     -0.306404
  C      -3.751268     -2.775029      0.764041
  C      -3.057234     -1.570369      0.638895
  H      -1.852134      5.804464      1.761076
  H      -0.368795      4.424767      3.220194
  H       0.847347      2.476108      2.275430
  H      -0.869597      3.274613     -1.593594
  H      -2.096639      5.218129     -0.653119
  H       0.801516      1.559999     -1.385585
  H       1.834340      1.497783      0.060473
  H       0.845806     -0.973056     -1.826232
  H       0.390788     -2.240268     -0.665669
  H       1.894292     -2.516959      1.453233
  H       4.255148     -2.664132      2.211301
  H       6.072821     -1.610292      0.862820
  H       5.502741     -0.417541     -1.254840
  H       3.141612     -0.283459     -2.012323
  H      -2.182208      0.892027     -0.255906
  H      -1.394085      0.276596     -1.725828
  H      -1.949963     -1.906636     -2.562642
  H      -3.182005     -4.051959     -2.344642
  H      -4.343903     -4.617352     -0.208765
  H      -4.257149     -3.014253      1.703152
  H      -3.014044     -0.875096      1.481745
