! RIJCOSX M062X def2-TZVP D3ZERO NormalSCF
%pal
nprocs 6
end

* xyz 0 1
  C          -1.45977062261154     -2.71616638473887      0.05008224396062
  C          -1.81590791498631     -1.39368838837383     -0.63740221124301
  P          -1.19221325713788      0.04201868013958      0.33762249935011
  O          -1.63387239648381      0.03988707499537      1.79253697358512
  C          -1.70109563752751      1.54706505937889     -0.59887020734175
  C          -1.24073458010466      2.81904589906091      0.12116782668484
  C           0.63687683715159     -0.02684294238605      0.18207134410147
  C           1.36946499354797     -0.07426680008527      1.38401054948371
  C           2.77216222563938     -0.12919024823132      1.34945843094845
  C           3.44563979933412     -0.13668523455608      0.11614444730147
  C           2.71688683575783     -0.08935231409397     -1.08588024601561
  C           1.31453236670977     -0.03444398940634     -1.05431643889253
  H          -0.36178294893904     -2.87054364531370      0.07670483035123
  H          -1.91422633174687     -3.57913947424449     -0.47652236965340
  H          -1.82343609901136     -2.70994554932332      1.09662546067379
  H          -1.41325527028497     -1.33535985365995     -1.67169587343493
  H          -2.91726074129518     -1.26102460701354     -0.70648526134514
  H          -2.80947694476615      1.50331254843517     -0.66826809100208
  H          -1.30479595201178      1.48328556558668     -1.63531639896703
  H          -1.60117178268557      2.81386454823414      1.16885228032051
  H          -1.62735405359552      3.72859409856670     -0.38065729471023
  H          -0.13392608124599      2.88647016912749      0.14680684640928
  H           0.80880526962895     -0.06701554429221      2.33218571870080
  H           3.34377658360772     -0.16659093885545      2.28972603002353
  H           4.54541108585833     -0.17993631778817      0.08903268387168
  H           3.24538426905434     -0.09546228231456     -2.05169107411844
  H           0.75134234814412      0.00211187115221     -2.00106469904245
*