26
Coordinates from ORCA-job data/geom_opt/74149/74149 E -730.803871345478
  C      -1.701617     -2.562064     -0.358155
  C      -2.047904     -1.085423     -0.255030
  P      -0.984343     -0.195817      0.965631
  C      -1.612198      1.523825      0.718241
  C      -0.848874      2.544629      1.546681
  C       0.630385     -0.152941      0.127816
  C       0.808028      0.306627     -1.183776
  C       2.075355      0.315158     -1.773995
  C       3.182427     -0.135986     -1.060120
  C       3.023187     -0.595850      0.244027
  C       1.756056     -0.603978      0.833076
  H      -2.385270     -3.059210     -1.054233
  H      -1.788600     -3.064061      0.611733
  H      -0.682227     -2.715282     -0.727873
  H      -1.987809     -0.623639     -1.245700
  H      -3.089607     -0.992960      0.072698
  H      -2.665565      1.546438      1.019913
  H      -1.581377      1.810306     -0.337820
  H      -0.891573      2.307832      2.615490
  H      -1.283283      3.540087      1.407355
  H       0.205116      2.598609      1.254250
  H      -0.034039      0.665504     -1.768925
  H       2.196040      0.674892     -2.792439
  H       4.167354     -0.129268     -1.519055
  H       3.883350     -0.949227      0.806331
  H       1.656987     -0.968202      1.853881
26
Coordinates from ORCA-job data/geom_opt/74149/74149 E -730.805889905324
  C      -1.675236     -2.570757     -0.391761
  C      -2.054662     -1.094627     -0.250099
  P      -1.011540     -0.206361      1.003404
  C      -1.616628      1.527804      0.729483
  C      -0.815005      2.563381      1.521918
  C       0.612643     -0.159071      0.151510
  C       0.784674      0.303472     -1.164058
  C       2.048468      0.315821     -1.760872
  C       3.163594     -0.135336     -1.049298
  C       3.009363     -0.597988      0.259191
  C       1.742780     -0.608900      0.853081
  H      -2.342903     -3.075679     -1.109204
  H      -1.753478     -3.100277      0.571327
  H      -0.642495     -2.690330     -0.756959
  H      -2.001654     -0.596036     -1.234574
  H      -3.102914     -1.016847      0.085757
  H      -2.672130      1.558428      1.049908
  H      -1.606934      1.785838     -0.344670
  H      -0.837622      2.348215      2.602304
  H      -1.229816      3.573599      1.370796
  H       0.240724      2.585789      1.207027
  H      -0.070237      0.662679     -1.743849
  H       2.163284      0.679359     -2.785607
  H       4.152600     -0.125953     -1.515140
  H       3.876937     -0.952272      0.821985
  H       1.638186     -0.973954      1.878404
26
Coordinates from ORCA-job data/geom_opt/74149/74149 E -730.806334343997
  C      -1.654038     -2.566719     -0.419708
  C      -2.063560     -1.100383     -0.244678
  P      -1.031617     -0.213642      1.031750
  C      -1.622375      1.531515      0.738183
  C      -0.792901      2.571650      1.498683
  C       0.602389     -0.164588      0.168685
  C       0.770241      0.297205     -1.148921
  C       2.030993      0.311768     -1.749456
  C       3.151103     -0.137046     -1.039639
  C       3.000890     -0.598885      0.270704
  C       1.735240     -0.611422      0.867560
  H      -2.307962     -3.076384     -1.147390
  H      -1.716364     -3.116522      0.534268
  H      -0.617220     -2.651911     -0.785371
  H      -2.023282     -0.572958     -1.215858
  H      -3.110950     -1.039100      0.101983
  H      -2.674423      1.567144      1.074251
  H      -1.631315      1.765220     -0.342691
  H      -0.796216      2.371247      2.583183
  H      -1.191445      3.588140      1.341320
  H       0.257560      2.568475      1.163415
  H      -0.091430      0.653325     -1.721963
  H       2.141454      0.674933     -2.775564
  H       4.139243     -0.125956     -1.508805
  H       3.871143     -0.951069      0.832171
  H       1.624841     -0.974038      1.893891
26
Coordinates from ORCA-job data/geom_opt/74149/74149 E -730.806417138365
  C      -1.656770     -2.566617     -0.421614
  C      -2.064881     -1.101501     -0.247353
  P      -1.033985     -0.215148      1.037120
  C      -1.620681      1.535470      0.737697
  C      -0.795636      2.572360      1.504077
  C       0.605327     -0.166129      0.169157
  C       0.769987      0.291536     -1.150045
  C       2.029426      0.306752     -1.751915
  C       3.151746     -0.137237     -1.041994
  C       3.004357     -0.594915      0.269702
  C       1.739500     -0.608176      0.868017
  H      -2.307410     -3.077974     -1.150117
  H      -1.719958     -3.115335      0.532585
  H      -0.618998     -2.649211     -0.783617
  H      -2.019350     -0.569294     -1.214544
  H      -3.111762     -1.033234      0.098512
  H      -2.675548      1.566519      1.064226
  H      -1.620951      1.763886     -0.343338
  H      -0.805404      2.369463      2.587769
  H      -1.188733      3.590304      1.346681
  H       0.256120      2.564445      1.174619
  H      -0.095058      0.642874     -1.720015
  H       2.137806      0.666510     -2.779019
  H       4.138688     -0.125420     -1.512607
  H       3.875957     -0.943190      0.830805
  H       1.626207     -0.966739      1.895213
26
Coordinates from ORCA-job data/geom_opt/74149/74149 E -730.806430864856
  C      -1.657200     -2.563676     -0.425959
  C      -2.068226     -1.101543     -0.247324
  P      -1.034860     -0.216323      1.038084
  C      -1.622277      1.535691      0.739223
  C      -0.793502      2.570410      1.501399
  C       0.606291     -0.167328      0.170053
  C       0.769896      0.287759     -1.149814
  C       2.029593      0.303591     -1.751018
  C       3.152094     -0.136744     -1.039821
  C       3.005437     -0.591617      0.272487
  C       1.740608     -0.605885      0.870501
  H      -2.309110     -3.075627     -1.152329
  H      -1.714481     -3.114260      0.527146
  H      -0.620942     -2.641587     -0.792408
  H      -2.025037     -0.564617     -1.211186
  H      -3.113502     -1.034594      0.102247
  H      -2.675636      1.565650      1.069252
  H      -1.625643      1.760320     -0.341855
  H      -0.797988      2.367126      2.584687
  H      -1.185913      3.588606      1.346523
  H       0.256168      2.560911      1.166260
  H      -0.096049      0.635991     -1.719597
  H       2.138076      0.661030     -2.778590
  H       4.138729     -0.124190     -1.510233
  H       3.877443     -0.936960      0.834157
  H       1.626029     -0.962138      1.898117
26
Coordinates from ORCA-job data/geom_opt/74149/74149 E -730.806433507784
  C      -1.661366     -2.563961     -0.424390
  C      -2.067909     -1.100701     -0.248819
  P      -1.032694     -0.216572      1.036273
  C      -1.620398      1.535802      0.738023
  C      -0.795977      2.569008      1.506023
  C       0.608253     -0.167721      0.168396
  C       0.770753      0.285091     -1.152278
  C       2.030638      0.301474     -1.753335
  C       3.153464     -0.135802     -1.041159
  C       3.007621     -0.588355      0.271974
  C       1.742894     -0.603426      0.870044
  H      -2.315583     -3.075691     -1.148827
  H      -1.719349     -3.112359      0.529866
  H      -0.625830     -2.645659     -0.791875
  H      -2.021365     -0.564492     -1.212821
  H      -3.113011     -1.029208      0.099974
  H      -2.675213      1.563607      1.063111
  H      -1.618230      1.760977     -0.342844
  H      -0.804538      2.363126      2.588734
  H      -1.188897      3.587181      1.352316
  H       0.254919      2.561620      1.174889
  H      -0.095827      0.630947     -1.722429
  H       2.139004      0.656976     -2.781557
  H       4.140020     -0.122702     -1.511640
  H       3.880214     -0.931281      0.834123
  H       1.628404     -0.957879      1.898228
26
Coordinates from ORCA-job data/geom_opt/74149/74149 E -730.806434333931
  C      -1.661612     -2.562931     -0.426793
  C      -2.069021     -1.100301     -0.248522
  P      -1.032533     -0.217228      1.036199
  C      -1.620351      1.535244      0.738671
  C      -0.794476      2.568209      1.505308
  C       0.608002     -0.168363      0.168764
  C       0.770142      0.282753     -1.152537
  C       2.030294      0.299637     -1.753225
  C       3.153270     -0.135292     -1.040021
  C       3.007688     -0.586142      0.273761
  C       1.742846     -0.601879      0.871544
  H      -2.317613     -3.074557     -1.149776
  H      -1.716346     -3.112505      0.526994
  H      -0.627144     -2.643466     -0.797609
  H      -2.023935     -0.562224     -1.211585
  H      -3.113565     -1.029892      0.102118
  H      -2.674700      1.563159      1.065196
  H      -1.619171      1.759481     -0.342413
  H      -0.801252      2.362385      2.588053
  H      -1.187576      3.586497      1.352421
  H       0.255892      2.560930      1.172406
  H      -0.096649      0.626845     -1.723420
  H       2.138777      0.653709     -2.781941
  H       4.139944     -0.121739     -1.510290
  H       3.880622     -0.927241      0.836531
  H       1.628464     -0.955090      1.900168
26
Coordinates from ORCA-job data/geom_opt/74149/74149 E -730.806434546638
  C      -1.662514     -2.562568     -0.428395
  C      -2.069525     -1.099907     -0.248688
  P      -1.032295     -0.217819      1.036074
  C      -1.619652      1.534955      0.739085
  C      -0.793778      2.567654      1.506245
  C       0.607897     -0.168878      0.168711
  C       0.769708      0.280228     -1.153343
  C       2.029960      0.297567     -1.753875
  C       3.153322     -0.134812     -1.039683
  C       3.008062     -0.583639      0.274885
  C       1.743120     -0.599932      0.872455
  H      -2.319834     -3.073907     -1.150450
  H      -1.715669     -3.112623      0.525240
  H      -0.628710     -2.643134     -0.801096
  H      -2.024841     -0.560975     -1.211352
  H      -3.113831     -1.029505      0.102743
  H      -2.674135      1.562928      1.065264
  H      -1.617852      1.759195     -0.342053
  H      -0.800860      2.361495      2.588957
  H      -1.186699      3.586106      1.353690
  H       0.256718      2.560452      1.173675
  H      -0.097365      0.622372     -1.725013
  H       2.138300      0.649996     -2.783212
  H       4.140103     -0.120873     -1.509824
  H       3.881371     -0.922740      0.838336
  H       1.628997     -0.951637      1.901624
