26
Coordinates from ORCA-job data/geom_opt/74149/74149 E -730.806434546638
  C          -1.66251367602586     -2.56256800500992     -0.42839474526878
  C          -2.06952544111234     -1.09990745062506     -0.24868819923982
  P          -1.03229468137513     -0.21781886392059      1.03607436964756
  C          -1.61965179987650      1.53495470920362      0.73908538481195
  C          -0.79377778158119      2.56765357557525      1.50624537507285
  C           0.60789720404948     -0.16887820218013      0.16871114266905
  C           0.76970831622996      0.28022782888078     -1.15334345017544
  C           2.02996025869964      0.29756699746446     -1.75387520158359
  C           3.15332152133057     -0.13481183526535     -1.03968308883442
  C           3.00806151055389     -0.58363916168067      0.27488498977513
  C           1.74311991160544     -0.59993162469559      0.87245499158170
  H          -2.31983357281631     -3.07390698198865     -1.15044976439826
  H          -1.71566855574432     -3.11262267167529      0.52524008375813
  H          -0.62871002697611     -2.64313392118099     -0.80109604320661
  H          -2.02484135281898     -0.56097545759730     -1.21135214650819
  H          -3.11383124451444     -1.02950481818115      0.10274276810736
  H          -2.67413492836088      1.56292814874316      1.06526364573738
  H          -1.61785206696747      1.75919531838288     -0.34205252730413
  H          -0.80085962339592      2.36149530391650      2.58895701105618
  H          -1.18669883327610      3.58610642529683      1.35369000776921
  H           0.25671783106712      2.56045199766498      1.17367502354029
  H          -0.09736480634137      0.62237201955781     -1.72501250025744
  H           2.13829964751346      0.64999584304258     -2.78321222720371
  H           4.14010296181086     -0.12087308130528     -1.50982355222582
  H           3.88137091332983     -0.92274006905834      0.83833621103632
  H           1.62899731499266     -0.95163702336453      1.90162444164311
