! RI BP86 def2-SVP D3BJ TIGHTSCF Opt
%pal
nprocs 6
end

* xyz 0 1
C      1.407606   -0.697950   -0.432551
P      0.158379    0.024045    0.611240
O      0.564964    0.085773    2.055084
C     -1.312846   -0.943131    0.344008
C     -0.184483    1.627459   -0.083638
H      2.332168   -0.116045   -0.382753
H      1.076904   -0.726160   -1.474688
H      1.627563   -1.721248   -0.115709
H     -1.577903   -0.965424   -0.716867
H     -1.161335   -1.972597    0.680388
H     -2.155513   -0.520497    0.898266
H      0.700024    2.267870   -0.025060
H     -0.476767    1.543138   -1.134193
H     -0.998761    2.114767    0.459862
*