43
Coordinates from ORCA-job data/geom_opt/80362/80362 E -1153.082261406675
  C      -5.080952     -1.330850      0.058949
  C      -3.613376     -1.616821     -0.059218
  C      -2.687013     -0.894718      0.708940
  C      -1.300318     -1.113791      0.593832
  C      -0.864858     -2.085351     -0.317177
  C      -1.778426     -2.800439     -1.096815
  C      -3.145457     -2.563036     -0.973536
  P      -0.190215     -0.125440      1.650084
  C      -0.125782      1.500785      0.825537
  C       0.439151      2.574536      1.534419
  C       0.530175      3.846526      0.965314
  C       0.051663      4.070709     -0.323000
  C      -0.529928      3.027058     -1.047702
  C      -0.602624      1.748057     -0.471830
  C      -1.016811      3.251717     -2.448957
  C       1.464639     -0.827374      1.349735
  C       1.877902     -1.903047      2.153926
  C       3.128876     -2.497591      1.975928
  C       3.993906     -2.022704      0.993437
  C       3.618539     -0.943422      0.189035
  C       2.352073     -0.362596      0.366101
  C       4.531245     -0.446565     -0.893160
  H      -5.358636     -0.515882     -0.616505
  H      -5.341397     -1.047004      1.084025
  H      -5.674233     -2.216165     -0.192926
  H      -3.056961     -0.143683      1.406582
  H       0.191715     -2.303227     -0.448138
  H      -1.418143     -3.543984     -1.803233
  H      -3.842065     -3.123362     -1.592664
  H       0.824136      2.427637      2.542115
  H       0.977846      4.660854      1.528874
  H       0.134421      5.064229     -0.757345
  H      -1.033469      0.942731     -1.062695
  H      -1.882645      2.617547     -2.666720
  H      -1.331653      4.290647     -2.592795
  H      -0.219834      3.022336     -3.162903
  H       1.221315     -2.296176      2.928245
  H       3.425536     -3.333258      2.604269
  H       4.962862     -2.498207      0.860634
  H       2.068176      0.460239     -0.286118
  H       5.580057     -0.626504     -0.634685
  H       4.307110     -0.957051     -1.834794
  H       4.413451      0.632640     -1.037064
43
Coordinates from ORCA-job data/geom_opt/80362/80362 E -1153.085477874221
  C      -5.074242     -1.280155      0.019665
  C      -3.596279     -1.573065     -0.076348
  C      -2.679851     -0.873584      0.720737
  C      -1.293607     -1.095547      0.625208
  C      -0.833900     -2.060427     -0.282560
  C      -1.736972     -2.775967     -1.073880
  C      -3.108658     -2.531943     -0.976055
  P      -0.201130     -0.126690      1.728709
  C      -0.110302      1.482974      0.859749
  C       0.483875      2.558752      1.540383
  C       0.587031      3.812257      0.935822
  C       0.080367      4.015604     -0.350967
  C      -0.527424      2.963204     -1.048816
  C      -0.611176      1.704259     -0.433109
  C      -1.047916      3.162192     -2.452318
  C       1.447419     -0.840181      1.378890
  C       1.853250     -1.950140      2.138334
  C       3.097846     -2.543229      1.920779
  C       3.963697     -2.024103      0.954283
  C       3.589154     -0.910569      0.189851
  C       2.328920     -0.333350      0.410787
  C       4.504003     -0.360120     -0.877956
  H      -5.347165     -0.453291     -0.657348
  H      -5.357238     -0.993022      1.043915
  H      -5.673641     -2.160981     -0.256588
  H      -3.057944     -0.133191      1.432886
  H       0.232930     -2.272423     -0.383966
  H      -1.364150     -3.527660     -1.774541
  H      -3.802826     -3.097420     -1.604110
  H       0.871123      2.422778      2.554505
  H       1.052896      4.639220      1.477876
  H       0.157639      5.005084     -0.810374
  H      -1.080073      0.885571     -0.984983
  H      -1.926713      2.527498     -2.643817
  H      -1.349647      4.207118     -2.621005
  H      -0.270381      2.905739     -3.191424
  H       1.195928     -2.358694      2.911477
  H       3.399752     -3.406530      2.519333
  H       4.940920     -2.490418      0.800301
  H       2.040491      0.532662     -0.190560
  H       5.560199     -0.555246     -0.637655
  H       4.281611     -0.825888     -1.852754
  H       4.382181      0.728925     -0.982353
43
Coordinates from ORCA-job data/geom_opt/80362/80362 E -1153.086144014464
  C      -5.087733     -1.323017      0.069338
  C      -3.602993     -1.582135     -0.052009
  C      -2.690352     -0.898660      0.761213
  C      -1.302423     -1.084933      0.639399
  C      -0.826520     -2.004618     -0.306756
  C      -1.725578     -2.711311     -1.110845
  C      -3.101494     -2.501204     -0.988390
  P      -0.217906     -0.117755      1.769368
  C      -0.117691      1.492877      0.880725
  C       0.448372      2.578270      1.570435
  C       0.563226      3.823202      0.951451
  C       0.098743      4.005750     -0.355663
  C      -0.476813      2.940446     -1.063808
  C      -0.576352      1.692061     -0.430074
  C      -0.951632      3.116284     -2.488575
  C       1.436237     -0.834902      1.397948
  C       1.841699     -1.952735      2.146077
  C       3.080944     -2.547937      1.906869
  C       3.937271     -2.023877      0.932817
  C       3.559731     -0.903321      0.177533
  C       2.306416     -0.322648      0.423904
  C       4.464460     -0.346477     -0.898302
  H      -5.391805     -0.477201     -0.573494
  H      -5.368389     -1.070832      1.104318
  H      -5.675906     -2.202262     -0.238026
  H      -3.072077     -0.195426      1.509763
  H       0.245938     -2.175632     -0.423129
  H      -1.345983     -3.431559     -1.841785
  H      -3.794552     -3.061751     -1.623806
  H       0.799232      2.449957      2.599408
  H       1.004858      4.662217      1.497404
  H       0.179964      4.990395     -0.827107
  H      -1.020913      0.858567     -0.979897
  H      -1.815131      2.467739     -2.706406
  H      -1.249700      4.157934     -2.687747
  H      -0.150972      2.855764     -3.204197
  H       1.186169     -2.357967      2.923459
  H       3.388325     -3.417756      2.495022
  H       4.913961     -2.488541      0.763742
  H       2.007989      0.550635     -0.162193
  H       5.524452     -0.550251     -0.678353
  H       4.233648     -0.800863     -1.878802
  H       4.341277      0.743475     -1.000830
43
Coordinates from ORCA-job data/geom_opt/80362/80362 E -1153.086302471499
  C      -5.087714     -1.323020      0.078456
  C      -3.604606     -1.580287     -0.045807
  C      -2.689619     -0.904694      0.771464
  C      -1.303097     -1.091336      0.645868
  C      -0.825932     -2.001877     -0.308703
  C      -1.727703     -2.699486     -1.117720
  C      -3.102690     -2.490151     -0.991150
  P      -0.217482     -0.114276      1.778326
  C      -0.121278      1.496847      0.875338
  C       0.465789      2.579705      1.551466
  C       0.586099      3.818231      0.920579
  C       0.107509      3.995217     -0.381556
  C      -0.491134      2.932551     -1.074470
  C      -0.597388      1.690766     -0.429049
  C      -0.984029      3.103812     -2.491917
  C       1.442960     -0.834107      1.402952
  C       1.830159     -1.973771      2.127610
  C       3.065670     -2.574247      1.882372
  C       3.933317     -2.035290      0.927563
  C       3.574217     -0.892162      0.197589
  C       2.324992     -0.305107      0.449847
  C       4.492407     -0.318323     -0.855367
  H      -5.395832     -0.472910     -0.556307
  H      -5.368439     -1.074320      1.113775
  H      -5.677362     -2.197553     -0.237736
  H      -3.067146     -0.207899      1.527761
  H       0.247014     -2.165881     -0.423280
  H      -1.351049     -3.413934     -1.855249
  H      -3.798428     -3.044243     -1.628462
  H       0.827861      2.449692      2.575695
  H       1.044473      4.656827      1.452273
  H       0.192705      4.973983     -0.863292
  H      -1.060874      0.856728     -0.961526
  H      -1.855248      2.461742     -2.695154
  H      -1.269149      4.147349     -2.697428
  H      -0.199682      2.828870     -3.219785
  H       1.160845     -2.388531      2.887208
  H       3.361084     -3.461546      2.449310
  H       4.906653     -2.503681      0.752668
  H       2.036825      0.586021     -0.112916
  H       5.548274     -0.540275     -0.635551
  H       4.268209     -0.743465     -1.850178
  H       4.378817      0.774034     -0.935514
43
Coordinates from ORCA-job data/geom_opt/80362/80362 E -1153.086324597392
  C      -5.095991     -1.367217      0.123046
  C      -3.612313     -1.596368     -0.027710
  C      -2.695917     -0.922434      0.790080
  C      -1.308968     -1.084541      0.639494
  C      -0.831305     -1.967202     -0.340468
  C      -1.734206     -2.661271     -1.151012
  C      -3.109819     -2.476335     -1.000129
  P      -0.222907     -0.107682      1.774625
  C      -0.123232      1.505147      0.871590
  C       0.441035      2.592509      1.559905
  C       0.563369      3.832249      0.931573
  C       0.109856      4.005001     -0.379431
  C      -0.466381      2.937967     -1.084124
  C      -0.574561      1.694504     -0.441941
  C      -0.931402      3.105959     -2.509835
  C       1.438284     -0.830823      1.400623
  C       1.825756     -1.964038      2.135381
  C       3.060931     -2.566776      1.894096
  C       3.927055     -2.036676      0.933701
  C       3.567797     -0.899939      0.194431
  C       2.318474     -0.310343      0.441629
  C       4.484227     -0.337266     -0.864046
  H      -5.428114     -0.510497     -0.489763
  H      -5.365436     -1.142689      1.166569
  H      -5.675821     -2.244629     -0.202134
  H      -3.071919     -0.247414      1.566225
  H       0.242554     -2.110849     -0.471408
  H      -1.358350     -3.353532     -1.909426
  H      -3.806485     -3.026400     -1.639409
  H       0.783395      2.463674      2.590716
  H       1.003914      4.674843      1.471337
  H       0.197628      4.983592     -0.860379
  H      -1.019211      0.856009     -0.982927
  H      -1.791931      2.456099     -2.731451
  H      -1.220387      4.146919     -2.721288
  H      -0.130768      2.838157     -3.221992
  H       1.156183     -2.371010      2.898552
  H       3.357405     -3.449018      2.467774
  H       4.899322     -2.507120      0.760325
  H       2.028278      0.574889     -0.128982
  H       5.539996     -0.558250     -0.644237
  H       4.259090     -0.771170     -1.854486
  H       4.370872      0.753970     -0.955093
43
Coordinates from ORCA-job data/geom_opt/80362/80362 E -1153.086330100284
  C      -5.094249     -1.361972      0.119192
  C      -3.611119     -1.594191     -0.028922
  C      -2.694496     -0.919788      0.788644
  C      -1.307716     -1.085900      0.640326
  C      -0.830846     -1.972219     -0.336669
  C      -1.733943     -2.665667     -1.147334
  C      -3.109303     -2.477052     -0.998759
  P      -0.221167     -0.107292      1.772795
  C      -0.122073      1.503913      0.867868
  C       0.452884      2.589121      1.550639
  C       0.574994      3.828215      0.920868
  C       0.111017      4.002165     -0.386158
  C      -0.475856      2.937339     -1.085248
  C      -0.583955      1.694391     -0.441914
  C      -0.952236      3.107072     -2.506713
  C       1.439345     -0.831016      1.399417
  C       1.821500     -1.970210      2.127724
  C       3.056384     -2.573918      1.887467
  C       3.927351     -2.039117      0.934198
  C       3.573360     -0.896698      0.201412
  C       2.324261     -0.305801      0.447351
  C       4.495166     -0.329193     -0.849433
  H      -5.423683     -0.506721     -0.496927
  H      -5.364517     -1.133871      1.161677
  H      -5.675152     -2.239547     -0.203435
  H      -3.069899     -0.241836      1.562354
  H       0.242891     -2.119564     -0.464794
  H      -1.358898     -3.360429     -1.903777
  H      -3.806191     -3.026524     -1.638207
  H       0.803643      2.459278      2.578440
  H       1.023732      4.669260      1.456150
  H       0.199285      4.979971     -0.868465
  H      -1.036842      0.857694     -0.978751
  H      -1.817559      2.461084     -2.720634
  H      -1.238864      4.149105     -2.715775
  H      -0.158674      2.835718     -3.225251
  H       1.148061     -2.381164      2.885270
  H       3.348887     -3.460654      2.456120
  H       4.899076     -2.510665      0.761199
  H       2.038175      0.583751     -0.118595
  H       5.549477     -0.554013     -0.626783
  H       4.272653     -0.755979     -1.843428
  H       4.385092      0.762924     -0.933137
43
Coordinates from ORCA-job data/geom_opt/80362/80362 E -1153.086331178464
  C      -5.094417     -1.365450      0.122790
  C      -3.611120     -1.594997     -0.027815
  C      -2.694389     -0.921071      0.790254
  C      -1.307617     -1.085320      0.639632
  C      -0.830829     -1.968784     -0.339983
  C      -1.733886     -2.661488     -1.151177
  C      -3.109352     -2.474863     -1.000264
  P      -0.221067     -0.106279      1.771356
  C      -0.121463      1.504060      0.865644
  C       0.456438      2.588560      1.546996
  C       0.579070      3.827389      0.916784
  C       0.112280      4.001688     -0.389195
  C      -0.477756      2.937609     -1.086752
  C      -0.586299      1.694824     -0.443094
  C      -0.957104      3.108030     -2.507167
  C       1.438965     -0.830780      1.398868
  C       1.818964     -1.971231      2.126407
  C       3.053654     -2.575756      1.887508
  C       3.926719     -2.040346      0.936420
  C       3.574884     -0.896758      0.204520
  C       2.325848     -0.304924      0.448994
  C       4.499025     -0.328808     -0.844089
  H      -5.426084     -0.510138     -0.492078
  H      -5.363527     -1.139005      1.165960
  H      -5.674355     -2.243798     -0.199562
  H      -3.069507     -0.245311      1.565985
  H       0.243000     -2.114518     -0.469326
  H      -1.359196     -3.354002     -1.909881
  H      -3.806337     -3.023676     -1.640237
  H       0.809295      2.458307      2.574048
  H       1.030171      4.668046      1.450726
  H       0.200854      4.979272     -0.871948
  H      -1.041581      0.858688     -0.978775
  H      -1.823907      2.463329     -2.719125
  H      -1.243031      4.150414     -2.715560
  H      -0.165363      2.835616     -3.227340
  H       1.143871     -2.382645      2.882261
  H       3.344649     -3.463476      2.455439
  H       4.898376     -2.512455      0.764442
  H       2.041339      0.585457     -0.116415
  H       5.552771     -0.554988     -0.620010
  H       4.277454     -0.754042     -1.838976
  H       4.390558      0.763616     -0.926265
43
Coordinates from ORCA-job data/geom_opt/80362/80362 E -1153.086331499431
  C      -5.094580     -1.367398      0.124889
  C      -3.611112     -1.595518     -0.027040
  C      -2.694346     -0.922085      0.791468
  C      -1.307597     -1.085109      0.639467
  C      -0.830745     -1.966883     -0.341681
  C      -1.733754     -2.659131     -1.153229
  C      -3.109305     -2.473583     -1.001030
  P      -0.221113     -0.105800      1.770912
  C      -0.121328      1.504233      0.864940
  C       0.456343      2.588749      1.546503
  C       0.578945      3.827645      0.916457
  C       0.112262      4.001900     -0.389611
  C      -0.477502      2.937792     -1.087357
  C      -0.586030      1.694923     -0.443877
  C      -0.956614      3.108395     -2.507916
  C       1.438741     -0.830538      1.398710
  C       1.818198     -1.971022      2.126549
  C       3.052781     -2.575865      1.888190
  C       3.926312     -2.040717      0.937262
  C       3.574940     -0.897242      0.205024
  C       2.325963     -0.305013      0.448989
  C       4.499542     -0.329740     -0.843546
  H      -5.427619     -0.512489     -0.489841
  H      -5.363021     -1.141156      1.168291
  H      -5.673987     -2.246404     -0.196701
  H      -3.069279     -0.247791      1.568560
  H       0.243185     -2.111517     -0.471610
  H      -1.359330     -3.350404     -1.913210
  H      -3.806333     -3.022049     -1.641291
  H       0.808989      2.458370      2.573642
  H       1.029812      4.668456      1.450397
  H       0.200671      4.979543     -0.872339
  H      -1.041091      0.858767     -0.979671
  H      -1.823193      2.463492     -2.720252
  H      -1.242988      4.150711     -2.716152
  H      -0.164537      2.836440     -3.227924
  H       1.142721     -2.382153      2.882244
  H       3.343556     -3.463580      2.456285
  H       4.897988     -2.512993      0.765697
  H       2.041689      0.585266     -0.116709
  H       5.553183     -0.556417     -0.619361
  H       4.277769     -0.754869     -1.838454
  H       4.391813      0.762783     -0.925673
