! RIJONX B3LYP def2-SVP D3BJ TIGHTSCF Opt
%pal
nprocs 6
end

* xyz 0 1
C      5.934957    0.164368   -0.123062
C      4.980476   -0.744676    0.114453
C      3.561166   -0.573550   -0.222576
C      2.595104   -1.177100    0.588396
C      1.230431   -1.062461    0.290432
C      0.793658   -0.348330   -0.832589
C      1.771390    0.237873   -1.653742
C      3.135240    0.124588   -1.355738
P     -0.953950   -0.142425   -1.304907
C     -1.846228   -1.309279   -0.225769
C     -1.932869   -2.651584   -0.637734
C     -2.600322   -3.604780    0.136556
C     -3.196485   -3.232261    1.337164
C     -3.125019   -1.908656    1.761890
C     -2.456482   -0.955344    0.986661
C     -1.400575    1.497822   -0.646445
C     -2.617963    2.065285   -1.064796
C     -3.028316    3.319480   -0.604118
C     -2.226621    4.031520    0.282370
C     -1.016879    3.489591    0.706892
C     -0.607072    2.234106    0.245780
H      5.727411    1.122936   -0.586767
H      6.963040   -0.032903    0.164636
H      5.247310   -1.676379    0.608510
H      2.890554   -1.739408    1.471657
H      0.524090   -1.541803    0.963388
H      1.481519    0.794345   -2.543760
H      3.855110    0.581322   -2.030082
H     -1.474618   -2.971207   -1.572310
H     -2.653338   -4.636391   -0.201317
H     -3.717033   -3.971208    1.940365
H     -3.590157   -1.612195    2.698620
H     -2.420769    0.065659    1.357878
H     -3.265795    1.529623   -1.756884
H     -3.973780    3.737124   -0.940044
H     -2.542933    5.007248    0.641190
H     -0.386399    4.042234    1.398857
H      0.342147    1.846817    0.606946
*