! RIJONX B3LYP def2-SVP D3BJ TIGHTSCF Opt
%pal
nprocs 6
end

* xyz 0 1
C     -1.212467    3.167952   -0.099322
C      0.056621    2.332034   -0.183779
P      0.077361    0.953547    1.045446
C     -1.262265   -0.113608    0.411749
C     -2.346613   -0.403823    1.253162
C     -3.399415   -1.209064    0.810894
C     -3.381772   -1.734593   -0.478660
C     -2.312263   -1.455898   -1.326041
C     -1.259848   -0.649906   -0.884262
C      1.570013   -0.007023    0.601277
C      1.637727   -1.375836    0.915104
C      2.770217   -2.135443    0.607562
C      3.864815   -1.535896   -0.006455
C      3.828741   -0.176979   -0.304210
C      2.693974    0.581605    0.003611
H     -1.354739    3.582755    0.904640
H     -1.155113    4.005878   -0.802064
H     -2.103230    2.584351   -0.353970
H      0.905355    2.994344    0.018455
H      0.176041    1.955421   -1.205167
H     -2.382273   -0.004301    2.264710
H     -4.232031   -1.424789    1.475234
H     -4.199903   -2.361847   -0.822440
H     -2.293404   -1.867074   -2.331897
H     -0.433519   -0.453698   -1.563800
H      0.801985   -1.871820    1.405854
H      2.794208   -3.193699    0.853638
H      4.747131   -2.123988   -0.243683
H      4.687240    0.299037   -0.770999
H      2.717427    1.642359   -0.227573
*