! RI BP86 def2-SVP D3BJ TIGHTSCF Opt
%pal
nprocs 6
end

* xyz 0 1
C      2.751471   -0.306212   -2.160390
C      2.511913   -1.108467   -0.905035
C      3.562409   -1.921220   -0.436806
C      3.417036   -2.691537    0.713652
C      2.219730   -2.660629    1.414135
C      1.168192   -1.857404    0.965856
C      1.285779   -1.063595   -0.192297
P     -0.099163   -0.010187   -0.775348
C      0.260629    1.656532   -0.096911
C      1.228108    1.847154    0.909532
C      1.505325    3.113834    1.429656
C      0.821940    4.224058    0.954722
C     -0.137102    4.068414   -0.042317
C     -0.426969    2.799675   -0.580487
C     -1.479168    2.718694   -1.659021
C     -1.562183   -0.594566    0.165798
C     -1.984508    0.052509    1.344024
C     -3.097270   -0.388767    2.064365
C     -3.817967   -1.489296    1.623223
C     -3.427736   -2.147432    0.460187
C     -2.310800   -1.714391   -0.280270
C     -1.956487   -2.482713   -1.529694
H      2.714149    0.766118   -1.944923
H      2.012880   -0.559819   -2.927489
H      3.738424   -0.515553   -2.587667
H      4.507953   -1.958767   -0.974181
H      4.236926   -3.314818    1.059911
H      2.096976   -3.260073    2.312342
H      0.253599   -1.863878    1.553310
H      1.786369    1.009376    1.319528
H      2.256800    3.226392    2.206697
H      1.034868    5.210493    1.357465
H     -0.662375    4.950322   -0.403653
H     -1.063922    2.278602   -2.571251
H     -1.854999    3.712164   -1.927788
H     -2.336728    2.131146   -1.316842
H     -1.450605    0.914977    1.734816
H     -3.395835    0.132007    2.970362
H     -4.683592   -1.835280    2.181418
H     -4.005400   -3.007939    0.128423
H     -1.959608   -1.822514   -2.402850
H     -0.976755   -2.958803   -1.423989
H     -2.682302   -3.278609   -1.730213
*