37
Coordinates from ORCA-job data/geom_opt_PO_BP86/80102/80102 E -1037.255445326155
  C          -1.02984884886445     -2.80350672950244      0.05656261008235
  C           0.19196959644090     -1.90910459013631     -0.23206011322893
  C           0.31373378695584     -1.63165623799214     -1.73643499674581
  C           1.47737933520316     -2.55833859075860      0.31567079480256
  P          -0.07561552533986     -0.36890389277955      0.81835556172019
  O          -0.25413704251445     -0.74494434151282      2.28544409486042
  C           1.37058261953965      0.74205850553489      0.59781024814283
  C           1.80842894930859      1.30837032187505     -0.61832374228241
  C           2.94147409048454      2.13686323646412     -0.64297569704757
  C           3.64585892188978      2.40593972479585      0.54300634731694
  C           3.21318590642137      1.84590282268770      1.75657635057800
  C           2.08057592382395      1.01779026992300      1.78548798302016
  C          -1.56531103864308      0.49202357866196      0.17480495403906
  C          -1.66063650169455      1.15672586740079     -1.06553608540662
  C          -2.86923640401237      1.75743897169863     -1.45202543641200
  C          -3.98895137381392      1.69982790207484     -0.60452492161058
  C          -3.89574090512410      1.04716197489254      0.63614983081827
  C          -2.68855162222189      0.44765162836565      1.02726877389166
  H          -1.15082562908228     -2.96088818516196      1.14608732357773
  H          -1.96521863834703     -2.35272083687463     -0.33392470449936
  H          -0.89543783084858     -3.79109785977738     -0.43316406505192
  H           0.42040471831739     -2.59525563889509     -2.27947995642364
  H           1.20758854597524     -1.02309010436333     -1.97766444197915
  H          -0.58601478575956     -1.12533463283919     -2.13950299906169
  H           2.36920468299669     -1.93235959238458      0.10820314231445
  H           1.40475833524785     -2.70438087820102      1.41144794071117
  H           1.63441637103912     -3.54813229941945     -0.16301123949506
  H           1.27359473297961      1.11141388862802     -1.55769527551089
  H           3.27592810801033      2.57555164964782     -1.59560619878672
  H           4.53403025464737      3.05600907497429      0.51970568238903
  H           3.76073247989515      2.05674584035114      2.68816289122002
  H           1.71404010214550      0.56719381502123      2.72116039735227
  H          -0.79234232103673      1.22451679463247     -1.73557814293326
  H          -2.93553737184850      2.27730528986540     -2.42009640737134
  H          -4.93527237852341      2.17162711928585     -0.91086287099568
  H          -4.76817709475466      1.00891972722230      1.30658241561192
  H          -2.58103414889265     -0.05732259340505      1.99997795239358
