39
Coordinates from ORCA-job data/geom_opt_PO_BP86/195868/195868 E -1734.583976598630
  C          -3.60402778811050     -2.77813206125702      1.20133693905819
  C          -3.82936355026380     -2.52239868910258     -0.16249074006939
  C          -2.88930505791303     -1.79284706819063     -0.90591675520633
  C          -1.72078325038811     -1.31180089224789     -0.28049276215779
  C          -1.48616576093031     -1.58361445071549      1.08326493476036
  C          -2.43215478903679     -2.31251434696913      1.82195234646684
  P          -0.58317268239499     -0.34418440551474     -1.33806221683755
  O          -0.69185077642432     -0.67383156133230     -2.81643810870709
  C          -0.89277473695652      1.41567281069403     -0.95008270236165
  C          -0.64653673299948      2.33866459712146     -1.98702766371292
  C          -0.82411405480039      3.71091153752324     -1.75514233023004
  C          -1.24919777796993      4.16328088661196     -0.49360606544484
  C          -1.50963726181777      3.24238599356069      0.53549053678413
  C          -1.33858630949192      1.86724492554925      0.30854479697284
  C           1.09295015758434     -0.68806518951357     -0.66731783045853
  C           1.58365543400283     -0.08668516969381      0.50349983994705
  C           2.85287025104029     -0.46087982580813      0.96889060503771
  C           3.64725687036844     -1.40189686544429      0.29632596641215
  C           3.15412139809622     -1.97561051061425     -0.88740065071498
  C           1.88405187010071     -1.62121465687233     -1.36903017919735
  S           3.45691281832336      0.28358354222903      2.48654353396377
  O           2.30420506235276      0.57020649214413      3.34851327311196
  O           4.64383813469918     -0.46500159845502      2.94376983997094
  O           3.97600308082209      1.77378715473456      1.95639682606988
  H          -4.34180950429622     -3.35231415332973      1.78254371841084
  H          -4.74094227824980     -2.89904494531664     -0.65130582492835
  H          -3.03640930908020     -1.59672847148044     -1.97931584266475
  H          -0.56008380545234     -1.24336830947326      1.57160580978425
  H          -2.24773904120921     -2.52478141466007      2.88606758293249
  H          -0.32974856400527      1.96064460828216     -2.97141981636315
  H          -0.63401722135374      4.43249659409659     -2.56446589822370
  H          -1.38669545602839      5.24049235232250     -0.31342846392012
  H          -1.85519782430446      3.59533242099575      1.51898328318025
  H          -1.56899769430731      1.14596367003455      1.10768749191960
  H           0.99947621395254      0.66477446156192      1.05535003156456
  H           4.62836448410911     -1.67765827954249      0.70914804463192
  H           3.76543389536993     -2.70993959152106     -1.43337464626712
  H           1.48210764507529     -2.05518836779187     -2.29784037363637
  H           4.92806191188773      1.67225977738489      1.73835747012227
