! RIJCOSX M062X def2-TZVP D3ZERO NormalSCF
%pal
nprocs 6
end

* xyz 0 1
  C          -2.70757169923418     -2.62136543233322      2.02882187562075
  C          -1.86436961000812     -2.72471855382632      0.78014907876854
  C          -1.32501720366540     -1.56936936572184      0.17727597463823
  C          -0.56807685277993     -1.65609963059641     -1.00618377401282
  C          -0.35649774532177     -2.90566091628764     -1.62131806578027
  C          -0.88553399163817     -4.06099536986720     -1.02797778331018
  C          -1.62538292672226     -3.97065451453146      0.16246378252338
  P           0.19774198760547     -0.20236728792574     -1.81822579282828
  O           0.36148521700684     -0.36860559430577     -3.31924571474858
  C           1.78447841749872      0.06475385533989     -0.94134273428601
  C           2.81218877435148      0.68846907755885     -1.67567059563376
  C           4.03787489530655      0.95616277429277     -1.04903413254974
  C           4.23966710828199      0.59830439817083      0.29401190079156
  C           3.22801042148624     -0.04585473885133      1.03753769393082
  C           1.99804135011746     -0.30778253468655      0.39895444435123
  C           3.46478559813552     -0.47956023540612      2.46469924020801
  C          -0.85675068908683      1.22421146338024     -1.35752313659414
  C          -1.83751480870865      1.61037200905033     -2.29198450071210
  C          -2.69886143472704      2.67318818014847     -1.98298470913516
  C          -2.57795218378548      3.34955785028905     -0.75807809625934
  C          -1.58746556678850      2.98882608652152      0.18010833595257
  C          -0.72883772075804      1.91649260193072     -0.13868196128750
  C          -1.42120373361043      3.75294225542383      1.47217928720126
  H          -2.40152849258540     -1.76269078782879      2.65896922336110
  H          -3.77870984891207     -2.47087598194815      1.77228878131654
  H          -2.64493191316319     -3.54182309138183      2.64251961560771
  H          -1.51466126928385     -0.58449425901603      0.63378949563928
  H           0.21212965243788     -2.95033090692466     -2.56270651484483
  H          -0.72261852824858     -5.04335336935258     -1.49767379018968
  H          -2.03474337636990     -4.88558567232227      0.62023616255910
  H           2.63634005035717      0.94517009702931     -2.73146951983050
  H           4.84672508144252      1.44710262011448     -1.61200898645962
  H           5.20642631028196      0.81534733771344      0.77617989213624
  H           1.20029127655359     -0.82520454589917      0.95594906947864
  H           4.19094988775408      0.18157484411766      2.97798548407425
  H           3.87762261643372     -1.51101641529786      2.50240482864864
  H           2.52470557421256     -0.48433579890763      3.05130393609055
  H          -1.90203795906734      1.07623663764223     -3.25221973096104
  H          -3.47197753597571      2.98071232698048     -2.70403753899740
  H          -3.26092736115021      4.18247835179560     -0.52576582465429
  H           0.06311646402059      1.62998394799771      0.57205302088634
  H          -0.71413106122586      4.60094076889931      1.34278306393218
  H          -2.38217484834040      4.17964562217938      1.82193586250754
  H          -1.01310132212702      3.11027189664245      2.27734785285079
*