! RIJCOSX M062X def2-TZVP D3ZERO NormalSCF
%pal
nprocs 6
end

* xyz 0 1
  C          -4.02317625848676     -0.94603054126597     -0.96194960656100
  C          -2.61070586300170     -0.43425869013355     -1.25831688738439
  C          -1.56056966866524     -0.95236726897399     -0.26510351545479
  P           0.15703991069505     -0.53543968468760     -0.79497657295769
  O           0.49048921920558     -1.01186915646330     -2.19861796450542
  C           0.31633833864906      1.29757529534185     -0.61693165337559
  C           0.02639752244216      1.90663172171363      0.76063440653666
  C           0.16868326403853      3.43295557225560      0.77685163787622
  C           1.23838297704238     -1.26971670285032      0.50750384868053
  C           2.72848135350409     -1.04108659247516      0.21600831126073
  C           3.65116501052750     -1.80199001368125      1.17260093970190
  H          -4.36402495180788     -0.63933209344501      0.04951964678428
  H          -4.06453749586208     -2.05472540276344     -1.00296152845724
  H          -4.75784065675279     -0.55667990907375     -1.69592489168139
  H          -2.60832429885198      0.67808138410368     -1.25370642938829
  H          -2.29492398496375     -0.73512937357081     -2.27994945735012
  H          -1.59234619658670     -2.06308232686545     -0.21728452172159
  H          -1.74216782084128     -0.57933577740468      0.76665990484739
  H          -0.35164221021387      1.72528761031817     -1.39592230301135
  H           1.34914195800437      1.53370953558843     -0.95364447276416
  H           0.71157331186670      1.46393724755574      1.51628997292599
  H          -1.00064525931292      1.62954341175837      1.08481322433406
  H          -0.52913839826462      3.90819046070133      0.05625745538223
  H           1.19640293486358      3.74381951263082      0.49549175568157
  H          -0.04695496314714      3.85215595563257      1.78079571306512
  H           1.00844547443694     -2.35789245210172      0.50234403785964
  H           0.94688318941862     -0.88302812598006      1.50872565104552
  H           2.92339621928780     -1.34279573031676     -0.83502652909612
  H           2.95481104072096      0.04694455862991      0.26781359527168
  H           3.47754211204085     -2.89677585294228      1.11108180951219
  H           4.71941505799760     -1.61864873023539      0.93751359802295
  H           3.48240713201693     -1.49864684099960      2.22747982492050
*