38
Coordinates from ORCA-job data/geom_opt_P_BP86/80757/80757 E -888.292414066775
  C           5.26375510509812      0.92752150980335      0.23849489566882
  C           3.87931623767667      1.55044326362582      0.44301013757469
  C           2.76874447758885      0.82261883389982     -0.32711450827052
  C           1.37812279791728      1.43096833953029     -0.11581156408037
  P           0.05131129758436      0.54944709513311     -1.11234396454510
  C          -1.47108780832594      1.33092912758856     -0.33891668720337
  C          -2.76588302168219      0.60916393563772     -0.72828261962371
  C          -4.02706997085134      1.25428334162920     -0.13726442462579
  C          -5.31548764974615      0.51492417225059     -0.51104359938421
  C           0.05737084766827     -1.09178608913770     -0.23663341613754
  C          -0.13284146078663     -1.23009901582607      1.15571378120619
  C          -0.10590312844504     -2.49558025167535      1.76100636119291
  C           0.11473311074007     -3.64554425472416      0.98142173948077
  C           0.30615925623019     -3.52232213117459     -0.40395577544071
  C           0.27530183040639     -2.25294430803979     -1.00703736066674
  H           6.04671499648252      1.46780368965376      0.80876918170222
  H           5.27975680066163     -0.13265573184514      0.56841061263118
  H           5.55828913714661      0.94343765956958     -0.83210244204782
  H           3.62582517854045      1.55504828861226      1.52702323123777
  H           3.89809494526629      2.62005925877285      0.13473784823562
  H           2.74927442219028     -0.24671656720151     -0.01907882522505
  H           3.01066799822223      0.81857592884178     -1.41390174454101
  H           1.10993132606629      1.42502500633078      0.96476297473746
  H           1.36471006284779      2.49471303349628     -0.44207161298804
  H          -1.36602721963401      1.37293874223892      0.76869211848900
  H          -1.49339659541283      2.38587503804822     -0.69177687219023
  H          -2.70698321756833     -0.45122158153880     -0.39533602816188
  H          -2.85047841450710      0.57170575995416     -1.83771866570683
  H          -4.08924188798759      2.31380177969985     -0.47357991318478
  H          -3.92680394287830      1.29696746146500      0.97074217162905
  H          -6.21061756039193      0.99841155545826     -0.06933573746691
  H          -5.45869079694292      0.48681686813287     -1.61186267276456
  H          -5.29213021231166     -0.53680240600297     -0.15555764312783
  H          -0.30482098882569     -0.33863099403621      1.78033113766275
  H          -0.25688043198168     -2.58781524709533      2.84804550261743
  H           0.13621720309549     -4.63840045296136      1.45679336338085
  H           0.47845693545340     -4.41898570908193     -1.01941068447818
  H           0.42158734139616     -2.15197294903211     -2.09451429558552
