! RI BP86 def2-SVP D3BJ TIGHTSCF Opt
%pal
nprocs 6
end

* xyz 0 1
C     -0.383296    2.213311   -0.402039
C     -0.159444    3.559673   -0.704129
C      0.765817    4.293909    0.034876
C      1.469126    3.694589    1.076029
C      1.245293    2.349750    1.377894
C      0.319020    1.591906    0.641707
P      0.087334   -0.145492    1.074398
O      0.209291   -0.348665    2.574739
C     -1.541818   -0.657268    0.488391
C     -2.654179   -0.435529    1.317706
C     -3.936942   -0.803176    0.906406
C     -4.117669   -1.398294   -0.338985
C     -3.026388   -1.629602   -1.173813
C     -1.742288   -1.261310   -0.762106
Cl    -5.696006   -1.851101   -0.850776
C      1.330354   -1.113821    0.193097
C      1.951192   -0.661485   -0.981104
C      2.900516   -1.454763   -1.631911
C      3.236615   -2.703635   -1.113557
C      2.633219   -3.166953    0.052238
C      1.685110   -2.374383    0.702420
Cl     4.403557   -3.677087   -1.919007
Cl     1.039510    5.949570   -0.341939
H     -1.112871    1.662490   -0.990431
H     -0.711864    4.030403   -1.513727
H      2.187598    4.265897    1.658228
H      1.790824    1.885855    2.199488
H     -2.514802    0.021867    2.297084
H     -4.785323   -0.626359    1.562558
H     -3.168305   -2.099234   -2.144128
H     -0.906337   -1.455487   -1.429467
H      1.708447    0.310678   -1.402837
H      3.376377   -1.091889   -2.539703
H      2.897144   -4.138341    0.462481
H      1.221187   -2.736025    1.619921
*