47
Coordinates from ORCA-job data/geom_opt_PO_BP86/78464/78464 E -1454.355073562127
  C          -0.79899613031506      2.51178759789286      2.87435345288746
  O          -1.40416101790341      2.11067112517979      1.63654386447725
  C          -0.68512326733380      2.39969139366438      0.50389713620939
  C          -0.86027695356830      3.64090893145265     -0.13708833090112
  C          -0.18688131469904      3.91304497961188     -1.33685756161197
  C           0.66178284454112      2.94580513461625     -1.90436779909115
  C           0.83684848257211      1.70879750608832     -1.26790246002171
  C           0.17657176692801      1.42677749988420     -0.05683837496488
  P           0.35203126102234     -0.16593972819212      0.83289468051858
  O           0.87017703029145     -0.05664084002906      2.26568286840118
  C          -1.31469385267417     -0.91532678042250      0.79679107799793
  C          -1.83364540470617     -1.38304064060608      2.01366322914641
  C          -3.13309825567718     -1.91132726062587      2.08004587449676
  C          -3.91614755295136     -1.95819743333073      0.91623428196074
  C          -3.41650007902913     -1.49121234712084     -0.31237955877134
  C          -2.10808736582282     -0.97181801400546     -0.37603204464665
  O          -1.51542191416526     -0.51423287670450     -1.51329140436016
  C          -2.28309660662755     -0.40087398168784     -2.69868337535444
  C           1.40855859557419     -1.23856056690844     -0.21334263317741
  C           0.93614529832231     -2.42919720732625     -0.80031423804884
  C           1.80867376022455     -3.27622028259047     -1.50012174786034
  C           3.16779097411742     -2.93793102520469     -1.61998242966544
  C           3.65456483680168     -1.75724089565575     -1.03881511232964
  C           2.78058576997048     -0.90799436257680     -0.33491794283216
  O           3.23660066504684      0.27704733725102      0.18505753669419
  C           3.88018906660989      0.18586915891956      1.46593039573664
  H          -0.58657265552061      3.60455767333264      2.87929241244457
  H          -1.53353056637729      2.28002954131231      3.66837152894863
  H           0.13005413711374      1.92895869759592      3.04749468167269
  H          -1.54579769576626      4.37264905703979      0.31604020790148
  H          -0.33099166243046      4.88360453063787     -1.83648650582997
  H           1.18735192333197      3.15541016771447     -2.84823013316534
  H           1.48680276137623      0.94621443999607     -1.71941333504710
  H          -1.19160447938717     -1.30113971250918      2.90464266088931
  H          -3.53561899543332     -2.27599039002936      3.03657116509487
  H          -4.93924493246565     -2.36333810064597      0.95604564134000
  H          -4.04751936190015     -1.53793581374868     -1.21026736995111
  H          -3.17536871985410      0.24490764651691     -2.54537000115649
  H          -1.62069948246182      0.06767823852044     -3.44924740220953
  H          -2.61412656384099     -1.39518594288114     -3.07339528119717
  H          -0.12454310639064     -2.69901981077928     -0.69444273043591
  H           1.42718481436083     -4.20433260327922     -1.95163192264767
  H           3.85448574140537     -3.59709314411900     -2.17327855865166
  H           4.71184797310785     -1.46696183252538     -1.13139756495265
  H           4.73798632611891     -0.52245659482185      1.43317044377121
  H           4.25446297879538      1.20034537851064      1.69804541252582
  H           3.14105392966901     -0.12554784741154      2.23333126576677
