! RI BP86 def2-SVP D3BJ TIGHTSCF Opt
%pal
nprocs 6
end

* xyz 0 1
C     -0.688204    2.811834    2.721060
O     -1.331042    2.142919    1.634325
C     -0.663068    2.381186    0.462902
C     -0.841672    3.609267   -0.180453
C     -0.214613    3.852105   -1.399506
C      0.573176    2.861933   -1.979723
C      0.730189    1.627268   -1.343445
C      0.112895    1.364400   -0.109412
P      0.270250   -0.224968    0.735228
O      0.750568   -0.046189    2.173717
C     -1.371790   -0.989681    0.715794
C     -1.895989   -1.487565    1.922175
C     -3.160792   -2.071672    1.966647
C     -3.917431   -2.170727    0.803536
C     -3.412151   -1.681367   -0.401903
C     -2.149927   -1.078599   -0.446780
O     -1.588406   -0.633876   -1.612561
C     -2.490589    0.050738   -2.479359
C      1.427214   -1.302679   -0.144679
C      1.035189   -2.521941   -0.720478
C      1.959288   -3.339421   -1.378499
C      3.294114   -2.955507   -1.469050
C      3.708323   -1.759252   -0.890870
C      2.784684   -0.955637   -0.216352
O      3.201385    0.236730    0.313161
C      3.951489    0.022386    1.510477
H     -0.930409    3.879598    2.709702
H     -1.075155    2.386108    3.651625
H      0.398606    2.670808    2.707991
H     -1.476106    4.370640    0.263812
H     -0.345406    4.808150   -1.898838
H      1.063313    3.044528   -2.932804
H      1.335757    0.867844   -1.830523
H     -1.310026   -1.407022    2.836684
H     -3.551983   -2.447912    2.908376
H     -4.900053   -2.634393    0.832964
H     -4.011497   -1.798244   -1.299215
H     -3.128909    0.752465   -1.930837
H     -1.894460    0.627409   -3.193047
H     -3.093135   -0.662450   -3.050086
H      0.003740   -2.858112   -0.664506
H      1.631919   -4.276729   -1.822054
H      4.009630   -3.586348   -1.989429
H      4.746317   -1.449795   -0.971731
H      4.970095   -0.299613    1.270652
H      4.013664    0.976990    2.041322
H      3.471011   -0.705607    2.173994
*