23
Coordinates from ORCA-job data/geom_opt_PO_BP86/143061/143061 E -816.318669593695
  C           0.82526224991168     -0.54039669639180     -1.45940790915139
  N           1.40710884991475     -0.68740152532233     -0.11512986298262
  C           1.56582043397603      0.65217888525770      0.47462196109763
  N           0.32776746987480      1.44777158395572      0.50885720745818
  C          -0.21799955501502      1.52353773625080     -0.85603681780201
  N          -0.43841012962536      0.21408518710157     -1.49199817565319
  C          -1.53096605008169     -0.52871132035432     -0.83776029580344
  P          -1.13395216858075     -0.85308688306447      0.96009137981296
  O          -2.13685262723531     -1.60840135707069      1.80821492631297
  C           0.58263412776820     -1.56108030890228      0.73989605065260
  C          -0.65314268598330      0.88472802960318      1.45462507575409
  H           0.66127127289841     -1.54651932912208     -1.89726645350642
  H           1.56088587748254     -0.00155920967439     -2.09226533588852
  H           2.31071972979557      1.20692931903089     -0.13308311275152
  H           1.96291230319342      0.55211419866378      1.50574753225500
  H          -1.17513745494788      2.08421899441921     -0.83587862283624
  H           0.50405470319786      2.08885699033498     -1.48139937374101
  H          -2.48062024116134      0.04544555178745     -0.90197653648824
  H          -1.70263694750730     -1.49902736302163     -1.35250409015090
  H           1.05566535832970     -1.68322957274966      1.73845884138232
  H           0.50203628659437     -2.57526083823616      0.29200535319522
  H          -0.23124168257821      0.86535747766940      2.48285815448861
  H          -1.56517812022115      1.51944844983514      1.48932910434593
