! RI BP86 def2-SVP D3BJ TIGHTSCF Opt
%pal
nprocs 6
end

* xyz 0 1
C      0.814603   -0.547321   -1.449949
N      1.362174   -0.674999   -0.105439
C      1.554732    0.644387    0.482766
N      0.311540    1.404607    0.502276
C     -0.227428    1.515256   -0.847210
N     -0.434700    0.203060   -1.446396
C     -1.531271   -0.536563   -0.811182
P     -1.039491   -0.782478    0.880545
O     -2.033925   -1.531038    1.722922
C      0.556413   -1.556729    0.746798
C     -0.664258    0.859445    1.452867
H      0.673231   -1.535282   -1.907428
H      1.544563   -0.045702   -2.099631
H      2.315215    1.195152   -0.087210
H      1.975573    0.561664    1.493405
H     -1.160342    2.094058   -0.846841
H      0.459559    2.101935   -1.472035
H     -2.466767    0.029369   -0.874257
H     -1.697916   -1.492481   -1.318982
H      1.023275   -1.676073    1.730265
H      0.477179   -2.555362    0.304232
H     -0.248505    0.841266    2.465896
H     -1.563453    1.483827    1.484587
*