34
Coordinates from ORCA-job data/geom_opt/140387/140387 E -1332.677277532367
  C          -1.27930327830644      3.86328993932031      0.05713535050861
  C          -1.11689837899615      2.71350823204556     -0.71625534311394
  C          -0.18797585047248      1.72029376594218     -0.35771075271015
  C           0.59602634595877      1.91729657557101      0.79054564102263
  C           0.45366161915472      3.06934369428433      1.56817789520593
  C          -0.48600527916136      4.02589906768746      1.19183946049767
  F          -0.62747282860931      5.13219567867461      1.93443293455516
  P          -0.07558728801617      0.23285378739520     -1.44921343662631
  C           1.46425796165969     -0.56506039879455     -0.81109158509900
  C           2.68475528134361     -0.14673740145805     -1.37085063033766
  C           3.89858119963913     -0.68089220403494     -0.93770189249017
  C           3.88416603436567     -1.65990486489380      0.05459989351189
  C           2.69296506386776     -2.10856032700527      0.61965502891929
  C           1.48607930019690     -1.55512945364793      0.18434519383749
  F           5.04468435103810     -2.18469166864119      0.47092989487467
  C          -1.37629021799239     -0.85427643201604     -0.71317170599125
  C          -2.01593066251508     -0.60200342259691      0.51103857515667
  C          -2.98971972080182     -1.47377408117498      1.00522265191555
  C          -3.31789034691763     -2.60789511689889      0.26669542530300
  C          -2.70452954841142     -2.88740139891959     -0.95354425066142
  C          -1.74317881637494     -2.00115087626646     -1.43995395659891
  F          -4.24931273267495     -3.44868364321580      0.73702101140716
  H          -2.00007962886020      4.63853838551306     -0.20992265285793
  H          -1.72526667893755      2.58417101699967     -1.61595138346703
  H           1.32770313887463      1.16300562624913      1.08591182445857
  H           1.05932348784271      3.23489059901466      2.46141866905487
  H           2.68540193186072      0.61276637214503     -2.15790676800219
  H           4.85190850608404     -0.36014374297850     -1.36215272653276
  H           2.72303364810183     -2.88037911399485      1.39136051669881
  H           0.55116137923857     -1.90029776426702      0.62966321497102
  H          -1.75281019170015      0.28461387373495      1.09092600576359
  H          -3.49563449658306     -1.28726500341978      1.95465174584882
  H          -2.99370379616917     -3.78263450449548     -1.50744403397576
  H          -1.26611950772658     -2.20578819585713     -2.40269681504692
