33
Coordinates from ORCA-job data/geom_opt/621893/621893 E -1051.303576443913
  C       3.906602     -1.546212     -0.975495
  C       2.920960     -2.478729     -0.668239
  C       1.780685     -2.086757      0.040607
  C       1.591211     -0.753031      0.439062
  C       2.614025      0.164509      0.141276
  C       3.755561     -0.224887     -0.567138
  P       0.132872     -0.257722      1.426414
  C      -0.199133      1.444748      0.851524
  C      -0.388091      1.773247     -0.499513
  C      -0.637395      3.091716     -0.888816
  C      -0.701508      4.101729      0.067633
  C      -0.515944      3.794602      1.413249
  C      -0.266557      2.475658      1.802637
  C      -1.273721     -1.129239      0.669021
  C      -2.408045     -1.396367      1.434433
  C      -3.485791     -2.053329      0.844201
  C      -3.407022     -2.424418     -0.491147
  C      -2.248316     -2.120939     -1.182995
  N      -1.189157     -1.486591     -0.635215
  H       4.792303     -1.849647     -1.526494
  H       3.034359     -3.514192     -0.977354
  H       1.032677     -2.842705      0.270297
  H       2.539590      1.202235      0.459483
  H       4.526063      0.507017     -0.794068
  H      -0.338017      1.001549     -1.266293
  H      -0.780299      3.325308     -1.940512
  H      -0.895387      5.126929     -0.236078
  H      -0.564425      4.580898      2.161922
  H      -0.122782      2.262275      2.859840
  H      -2.463550     -1.097164      2.476379
  H      -4.378921     -2.269017      1.423415
  H      -4.227983     -2.934735     -0.981619
  H      -2.134863     -2.386738     -2.230009
33
Coordinates from ORCA-job data/geom_opt/621893/621893 E -1051.306676709098
  C       3.899360     -1.539327     -0.954508
  C       2.950017     -2.494074     -0.582232
  C       1.801338     -2.108360      0.112859
  C       1.575111     -0.762084      0.446211
  C       2.545449      0.184057      0.076018
  C       3.696577     -0.199349     -0.618028
  P       0.139024     -0.270843      1.470849
  C      -0.183247      1.436390      0.875927
  C      -0.383314      1.740226     -0.480876
  C      -0.630808      3.053332     -0.887664
  C      -0.680641      4.082773      0.057539
  C      -0.482738      3.794279      1.409588
  C      -0.236101      2.478367      1.815283
  C      -1.269657     -1.136466      0.667165
  C      -2.389962     -1.462941      1.442364
  C      -3.481043     -2.081402      0.831407
  C      -3.417065     -2.368415     -0.531610
  C      -2.260757     -2.012126     -1.223653
  N      -1.210695     -1.407388     -0.652350
  H       4.795095     -1.839292     -1.504929
  H       3.099276     -3.546230     -0.837714
  H       1.075138     -2.875511      0.390291
  H       2.412763      1.240271      0.324866
  H       4.434246      0.555881     -0.900946
  H      -0.349768      0.944725     -1.229690
  H      -0.785555      3.271825     -1.947446
  H      -0.873772      5.110616     -0.261310
  H      -0.519564      4.595357      2.152355
  H      -0.082120      2.267998      2.877175
  H      -2.413430     -1.236011      2.510839
  H      -4.366567     -2.344389      1.416225
  H      -4.245797     -2.859050     -1.046984
  H      -2.160792     -2.212837     -2.296614
33
Coordinates from ORCA-job data/geom_opt/621893/621893 E -1051.307420127886
  C       3.873730     -1.561492     -0.944648
  C       2.878342     -2.489775     -0.616542
  C       1.739503     -2.083342      0.079829
  C       1.567502     -0.740104      0.453464
  C       2.571807      0.183943      0.122088
  C       3.716238     -0.223511     -0.568921
  P       0.147035     -0.242168      1.506945
  C      -0.185086      1.466791      0.887059
  C      -0.412478      1.742863     -0.472568
  C      -0.664758      3.048939     -0.895314
  C      -0.692162      4.097668      0.034583
  C      -0.467006      3.832129      1.388459
  C      -0.216444      2.521488      1.811158
  C      -1.253607     -1.131450      0.668384
  C      -2.361058     -1.502719      1.448757
  C      -3.445439     -2.131132      0.832423
  C      -3.379064     -2.387380     -0.539483
  C      -2.224964     -1.994266     -1.229856
  N      -1.195754     -1.382626     -0.647918
  H       4.765989     -1.879689     -1.493301
  H       2.987585     -3.539568     -0.907158
  H       0.971050     -2.823601      0.322393
  H       2.461705      1.236490      0.396133
  H       4.485652      0.513220     -0.821181
  H      -0.395957      0.925117     -1.198011
  H      -0.841075      3.250534     -1.956762
  H      -0.889015      5.121971     -0.298261
  H      -0.485907      4.646521      2.119631
  H      -0.040226      2.317057      2.872214
  H      -2.367452     -1.301638      2.524342
  H      -4.323106     -2.425860      1.417021
  H      -4.198807     -2.886129     -1.065606
  H      -2.126771     -2.178280     -2.308943
33
Coordinates from ORCA-job data/geom_opt/621893/621893 E -1051.307509821938
  C       3.865962     -1.571056     -0.940168
  C       2.926448     -2.516493     -0.511934
  C       1.785604     -2.111867      0.181648
  C       1.555744     -0.752170      0.449789
  C       2.504290      0.190146      0.021529
  C       3.649378     -0.216732     -0.669016
  P       0.135027     -0.242339      1.506695
  C      -0.180446      1.476975      0.887584
  C      -0.325110      1.768636     -0.480401
  C      -0.559173      3.078917     -0.898156
  C      -0.648394      4.114728      0.042482
  C      -0.502270      3.832731      1.403058
  C      -0.270485      2.517498      1.822542
  C      -1.273770     -1.129032      0.653022
  C      -2.336512     -1.583404      1.451789
  C      -3.427365     -2.206764      0.840481
  C      -3.413077     -2.368659     -0.546606
  C      -2.301150     -1.893379     -1.256608
  N      -1.267961     -1.290871     -0.675444
  H       4.759765     -1.888934     -1.483459
  H       3.082112     -3.578632     -0.721266
  H       1.060160     -2.862654      0.504892
  H       2.341919      1.252952      0.214085
  H       4.374006      0.532551     -1.000254
  H      -0.254902      0.957644     -1.208558
  H      -0.671111      3.295840     -1.964205
  H      -0.830203      5.141267     -0.287540
  H      -0.568610      4.636328      2.141676
  H      -0.155963      2.293788      2.887238
  H      -2.296642     -1.450171      2.535787
  H      -4.269835     -2.565282      1.438424
  H      -4.238654     -2.855319     -1.071650
  H      -2.248781     -2.006242     -2.347049
33
Coordinates from ORCA-job data/geom_opt/621893/621893 E -1051.307675923344
  C       3.869916     -1.583197     -0.924716
  C       2.898712     -2.513915     -0.540523
  C       1.758839     -2.098233      0.148956
  C       1.563130     -0.741856      0.458749
  C       2.546459      0.184528      0.075942
  C       3.689780     -0.233568     -0.611192
  P       0.132327     -0.227930      1.500527
  C      -0.187110      1.487164      0.877507
  C      -0.384746      1.769736     -0.485705
  C      -0.624989      3.078804     -0.904233
  C      -0.669034      4.121543      0.030367
  C      -0.473491      3.849032      1.386046
  C      -0.235025      2.535666      1.806947
  C      -1.270215     -1.123346      0.651380
  C      -2.326845     -1.589208      1.449647
  C      -3.410442     -2.224102      0.838130
  C      -3.397273     -2.383527     -0.548172
  C      -2.294630     -1.893917     -1.259320
  N      -1.264496     -1.279975     -0.679032
  H       4.761907     -1.909315     -1.465445
  H       3.027619     -3.572386     -0.782082
  H       1.008796     -2.838156      0.438248
  H       2.416139      1.244294      0.305164
  H       4.441613      0.503432     -0.906040
  H      -0.353847      0.952938     -1.209919
  H      -0.778601      3.288751     -1.966134
  H      -0.855907      5.146511     -0.300577
  H      -0.505777      4.658715      2.119741
  H      -0.081874      2.320683      2.868207
  H      -2.289626     -1.455172      2.533227
  H      -4.247784     -2.593206      1.436231
  H      -4.218520     -2.877740     -1.072038
  H      -2.245004     -2.003048     -2.349478
33
Coordinates from ORCA-job data/geom_opt/621893/621893 E -1051.307677062000
  C       3.846789     -1.587633     -0.950913
  C       2.862279     -2.509195     -0.580118
  C       1.731403     -2.086882      0.120500
  C       1.560136     -0.733442      0.456785
  C       2.555791      0.183752      0.084398
  C       3.690199     -0.241117     -0.613319
  P       0.132730     -0.216683      1.501654
  C      -0.185737      1.497340      0.878814
  C      -0.342050      1.789819     -0.487734
  C      -0.581533      3.100406     -0.902548
  C      -0.664432      4.134291      0.038478
  C      -0.508104      3.852597      1.397140
  C      -0.270536      2.538126      1.814720
  C      -1.266743     -1.121745      0.660229
  C      -2.335651     -1.560692      1.456398
  C      -3.410042     -2.213871      0.848300
  C      -3.374908     -2.419035     -0.531060
  C      -2.260885     -1.955567     -1.240324
  N      -1.237351     -1.324327     -0.664442
  H       4.731167     -1.918565     -1.501446
  H       2.973291     -3.565054     -0.841478
  H       0.969712     -2.819451      0.399447
  H       2.443400      1.241631      0.332545
  H       4.452805      0.488432     -0.899049
  H      -0.281734      0.979263     -1.217037
  H      -0.704007      3.318615     -1.966943
  H      -0.850338      5.160368     -0.290072
  H      -0.570327      4.656098      2.135811
  H      -0.147943      2.316163      2.878536
  H      -2.315787     -1.390483      2.535375
  H      -4.257472     -2.562900      1.444542
  H      -4.188719     -2.929246     -1.051482
  H      -2.195403     -2.101011     -2.325295
33
Coordinates from ORCA-job data/geom_opt/621893/621893 E -1051.307723705977
  C       3.846679     -1.589824     -0.938974
  C       2.870144     -2.514001     -0.553446
  C       1.737907     -2.091263      0.144524
  C       1.556620     -0.734527      0.461845
  C       2.544678      0.185206      0.076188
  C       3.680407     -0.240122     -0.619059
  P       0.128748     -0.215772      1.506170
  C      -0.186219      1.497708      0.879058
  C      -0.354024      1.784566     -0.487309
  C      -0.590483      3.094538     -0.905414
  C      -0.659604      4.132884      0.032030
  C      -0.492766      3.856278      1.390552
  C      -0.258074      2.542368      1.811615
  C      -1.269424     -1.119051      0.657656
  C      -2.323822     -1.589989      1.455112
  C      -3.398393     -2.239346      0.843054
  C      -3.378138     -2.406707     -0.541775
  C      -2.278512     -1.910688     -1.252146
  N      -1.255353     -1.283983     -0.671964
  H       4.732311     -1.921251     -1.486978
  H       2.988975     -3.572321     -0.800767
  H       0.982577     -2.825438      0.435780
  H       2.423820      1.245101      0.310849
  H       4.436719      0.491318     -0.916238
  H      -0.304562      0.969647     -1.212557
  H      -0.721543      3.309111     -1.969452
  H      -0.843197      5.158384     -0.299277
  H      -0.544416      4.663176      2.126219
  H      -0.126896      2.323314      2.874939
  H      -2.291458     -1.447370      2.537683
  H      -4.234357     -2.613817      1.439864
  H      -4.192364     -2.912101     -1.066017
  H      -2.225977     -2.026025     -2.341358
33
Coordinates from ORCA-job data/geom_opt/621893/621893 E -1051.307729898132
  C       3.840698     -1.594236     -0.936550
  C       2.864529     -2.516647     -0.545902
  C       1.733526     -2.090613      0.152059
  C       1.553028     -0.732387      0.463740
  C       2.541167      0.185283      0.073773
  C       3.675662     -0.243254     -0.621546
  P       0.125209     -0.210427      1.507375
  C      -0.187004      1.502428      0.878117
  C      -0.352986      1.789023     -0.488542
  C      -0.586872      3.099332     -0.907045
  C      -0.655231      4.137961      0.030104
  C      -0.490338      3.861602      1.388915
  C      -0.258257      2.547417      1.810535
  C      -1.271049     -1.116309      0.657709
  C      -2.317381     -1.603887      1.455661
  C      -3.388900     -2.257295      0.842375
  C      -3.373707     -2.410692     -0.544061
  C      -2.282370     -1.897361     -1.254930
  N      -1.261846     -1.267545     -0.673619
  H       4.725353     -1.928160     -1.484640
  H       2.982902     -3.575957     -0.789174
  H       0.978333     -2.823161      0.447851
  H       2.420843      1.245971      0.304987
  H       4.432041      0.486538     -0.922586
  H      -0.304329      0.973288     -1.212835
  H      -0.716479      3.314249     -1.971196
  H      -0.836715      5.163651     -0.301798
  H      -0.541492      4.668863      2.124223
  H      -0.128412      2.328097      2.873965
  H      -2.280745     -1.470616      2.539265
  H      -4.218557     -2.645420      1.439280
  H      -4.185637     -2.918484     -1.069564
  H      -2.234982     -2.001252     -2.345537
33
Coordinates from ORCA-job data/geom_opt/621893/621893 E -1051.307733932563
  C       3.832639     -1.600690     -0.933864
  C       2.856565     -2.520449     -0.536623
  C       1.727046     -2.089629      0.160753
  C       1.547877     -0.729466      0.465061
  C       2.536212      0.185199      0.069026
  C       3.669304     -0.247906     -0.625805
  P       0.119994     -0.202683      1.507162
  C      -0.188301      1.509606      0.876319
  C      -0.351519      1.797680     -0.490392
  C      -0.581683      3.108962     -0.907996
  C      -0.648970      4.146919      0.029919
  C      -0.486899      3.869207      1.388825
  C      -0.258606      2.554130      1.809618
  C      -1.273625     -1.112853      0.657435
  C      -2.310849     -1.618819      1.455576
  C      -3.377531     -2.279371      0.841153
  C      -3.366733     -2.419802     -0.546601
  C      -2.284853     -1.887117     -1.257764
  N      -1.268600     -1.251537     -0.675481
  H       4.716113     -1.938197     -1.481752
  H       2.974198     -3.581126     -0.774258
  H       0.971909     -2.819932      0.462309
  H       2.416880      1.247077      0.295219
  H       4.425972      0.479505     -0.931891
  H      -0.304085      0.981906     -1.214577
  H      -0.709189      3.325517     -1.972085
  H      -0.827425      5.173294     -0.301608
  H      -0.537347      4.676093      2.124618
  H      -0.130845      2.333464      2.873024
  H      -2.270667     -1.493807      2.540024
  H      -4.200007     -2.682667      1.437979
  H      -4.174897     -2.932368     -1.073335
  H      -2.242080     -1.980138     -2.349576
33
Coordinates from ORCA-job data/geom_opt/621893/621893 E -1051.307734388698
  C       3.828925     -1.603753     -0.931892
  C       2.852438     -2.522093     -0.532220
  C       1.723354     -2.088947      0.164367
  C       1.545003     -0.727984      0.465596
  C       2.533557      0.185209      0.066912
  C       3.666306     -0.250135     -0.627114
  P       0.117074     -0.198774      1.506605
  C      -0.189289      1.513277      0.875204
  C      -0.351710      1.802411     -0.491428
  C      -0.579665      3.114291     -0.908424
  C      -0.645390      4.151924      0.029964
  C      -0.483998      3.873292      1.388795
  C      -0.257998      2.557652      1.808938
  C      -1.275234     -1.110946      0.657111
  C      -2.307783     -1.626115      1.455277
  C      -3.371872     -2.290732      0.840522
  C      -3.363298     -2.425400     -0.547782
  C      -2.286200     -1.883184     -1.259159
  N      -1.272372     -1.244228     -0.676544
  H       4.712095     -1.943014     -1.479202
  H       2.969559     -3.583399     -0.767318
  H       0.967937     -2.818215      0.467922
  H       2.414807      1.247715      0.290508
  H       4.423270      0.476132     -0.935188
  H      -0.305397      0.986843     -1.215935
  H      -0.706564      3.331645     -1.972437
  H      -0.822041      5.178744     -0.301167
  H      -0.533242      4.679927      2.124938
  H      -0.130830      2.336348      2.872298
  H      -2.266013     -1.505093      2.540143
  H      -4.190584     -2.701454      1.437476
  H      -4.169477     -2.940720     -1.074888
  H      -2.245365     -1.971222     -2.351474
33
Coordinates from ORCA-job data/geom_opt/621893/621893 E -1051.307734670107
  C       3.829798     -1.602930     -0.932192
  C       2.853358     -2.521613     -0.533174
  C       1.724037     -2.089054      0.163387
  C       1.545342     -0.728284      0.465305
  C       2.533793      0.185304      0.067169
  C       3.666780     -0.249494     -0.626815
  P       0.117436     -0.199588      1.506417
  C      -0.189256      1.512515      0.875394
  C      -0.353037      1.801784     -0.491040
  C      -0.581273      3.113677     -0.907816
  C      -0.645899      4.151334      0.030642
  C      -0.483114      3.872594      1.389293
  C      -0.256883      2.556918      1.809159
  C      -1.274874     -1.111609      0.657059
  C      -2.309371     -1.623387      1.454870
  C      -3.373783     -2.287551      0.840174
  C      -3.363618     -2.425344     -0.547825
  C      -2.284610     -1.886428     -1.258914
  N      -1.270637     -1.247796     -0.676315
  H       4.713166     -1.941750     -1.479426
  H       2.970638     -3.582785     -0.768791
  H       0.968693     -2.818696      0.466253
  H       2.414861      1.247740      0.291054
  H       4.423601      0.477122     -0.934411
  H      -0.307563      0.986363     -1.215783
  H      -0.709275      3.330939     -1.971714
  H      -0.822805      5.178188     -0.300254
  H      -0.531501      4.679191      2.125540
  H      -0.128756      2.335674      2.872422
  H      -2.269057     -1.500148      2.539553
  H      -4.193978     -2.695508      1.436998
  H      -4.169992     -2.940483     -1.074832
  H      -2.242222     -1.976896     -2.350979
