31
Coordinates from ORCA-job data/geom_opt/119411/119411 E -1143.632477736398
  C          -2.11493832724153     -1.69395301528839      0.67137374593778
  C          -0.75304339186844     -1.44879177282169      0.03076088595274
  P           0.10797487605906      0.06386280280920      0.70720299211350
  C          -0.88511603226730      1.38269944138056     -0.16581666712072
  C          -0.37529339937753      2.79282111382509      0.11070930778556
  C          -1.30417204355376      3.86545175073572     -0.41570772384144
  O          -2.42298891807883      3.68650039408873     -0.82869884639200
  O          -0.73552648276367      5.08655026758592     -0.35702332418525
  C           1.61962306149662      0.05830467936845     -0.38976096422849
  C           2.63226113780692     -1.01373956024126     -0.00204494714617
  C           3.94592974387097     -0.87335348305903     -0.74031493149763
  O           4.27859025142030      0.07223902456740     -1.41080783680194
  O           4.74117656876660     -1.94463560737259     -0.54590342228167
  C          -2.70813163444372     -3.03383124569187      0.29286661224999
  O          -2.12782391705502     -3.92457660163501     -0.27648713999658
  O          -3.99265286753203     -3.13723355495855      0.68927553047616
  H          -2.84775598628457     -0.91258987388670      0.41242271070809
  H          -2.04423314539082     -1.67326044021034      1.77417236767248
  H          -0.10690598502817     -2.31887590185500      0.22757382941984
  H          -0.85115005537953     -1.37718601278286     -1.06632132964827
  H          -0.90982150066073      1.18868509270622     -1.25207177404402
  H          -1.92619356777021      1.30588427266411      0.18587298106968
  H           0.62461700869389      2.96954295154222     -0.31779085129707
  H          -0.26219716213375      2.96843936126659      1.19602169554999
  H          -1.39528992733483      5.71933137070272     -0.68983913112798
  H           1.32608755105371     -0.05455834180524     -1.44777903933140
  H           2.09888264983439      1.04644960095384     -0.30517688708618
  H           2.25194313016262     -2.03323713013383     -0.17672872326177
  H           2.86318562976570     -0.96992949309791      1.07791814680017
  H           5.56776444686990     -1.77133946189169     -1.02877925054520
  H          -4.29480371163621     -4.02567162746482      0.43267198409780
