! RIJONX B3LYP def2-SVP D3BJ TIGHTSCF Opt
%pal
nprocs 6
end

* xyz 0 1
C     -2.095146   -1.696748    0.738402
C     -0.758087   -1.447327    0.047849
P      0.106602    0.061776    0.702668
C     -0.879363    1.386367   -0.150092
C     -0.374019    2.788154    0.176131
C     -1.230774    3.830414   -0.487017
O     -2.192249    3.647029   -1.213328
O     -0.819309    5.080334   -0.196700
C      1.620808    0.051317   -0.374801
C      2.642561   -0.990924    0.068546
C      3.873473   -0.929257   -0.792357
O      4.078886   -0.190846   -1.740063
O      4.803051   -1.825762   -0.407587
C     -2.735063   -2.954683    0.220519
O     -2.309377   -3.701161   -0.643861
O     -3.908820   -3.211155    0.830769
H     -2.787476   -0.867645    0.556940
H     -1.951742   -1.807526    1.819574
H     -0.105411   -2.313006    0.208106
H     -0.899345   -1.353484   -1.035222
H     -0.867335    1.218626   -1.233384
H     -1.923065    1.298027    0.172322
H      0.653995    2.923155   -0.176886
H     -0.402053    2.961993    1.258149
H     -1.444492    5.659396   -0.681193
H      1.332188   -0.116930   -1.418924
H      2.080527    1.045143   -0.329680
H      2.227063   -2.001279   -0.010209
H      2.943935   -0.812481    1.107344
H      5.543150   -1.691664   -1.036214
H     -4.223115   -4.039854    0.411989
*