31
Coordinates from ORCA-job data/geom_opt/119411/119411 E -1143.627749585215
  C      -2.095146     -1.696748      0.738402
  C      -0.758087     -1.447327      0.047849
  P       0.106602      0.061776      0.702668
  C      -0.879363      1.386367     -0.150092
  C      -0.374019      2.788154      0.176131
  C      -1.230774      3.830414     -0.487017
  O      -2.192249      3.647029     -1.213328
  O      -0.819309      5.080334     -0.196700
  C       1.620808      0.051317     -0.374801
  C       2.642561     -0.990924      0.068546
  C       3.873473     -0.929257     -0.792357
  O       4.078886     -0.190846     -1.740063
  O       4.803051     -1.825762     -0.407587
  C      -2.735063     -2.954683      0.220519
  O      -2.309377     -3.701161     -0.643861
  O      -3.908820     -3.211155      0.830769
  H      -2.787476     -0.867645      0.556940
  H      -1.951742     -1.807526      1.819574
  H      -0.105411     -2.313006      0.208106
  H      -0.899345     -1.353484     -1.035222
  H      -0.867335      1.218626     -1.233384
  H      -1.923065      1.298027      0.172322
  H       0.653995      2.923155     -0.176886
  H      -0.402053      2.961993      1.258149
  H      -1.444492      5.659396     -0.681193
  H       1.332188     -0.116930     -1.418924
  H       2.080527      1.045143     -0.329680
  H       2.227063     -2.001279     -0.010209
  H       2.943935     -0.812481      1.107344
  H       5.543150     -1.691664     -1.036214
  H      -4.223115     -4.039854      0.411989
31
Coordinates from ORCA-job data/geom_opt/119411/119411 E -1143.631151164465
  C      -2.098308     -1.705896      0.720352
  C      -0.749730     -1.449245      0.044501
  P       0.110409      0.063522      0.710845
  C      -0.882289      1.380241     -0.157018
  C      -0.386265      2.793709      0.154940
  C      -1.249657      3.853388     -0.485888
  O      -2.224127      3.665127     -1.177446
  O      -0.823169      5.099003     -0.188967
  C       1.619971      0.055885     -0.381864
  C       2.651050     -0.990782      0.045479
  C       3.903093     -0.931687     -0.795870
  O       4.116934     -0.173664     -1.713998
  O       4.819602     -1.840321     -0.400898
  C      -2.750117     -2.973424      0.222888
  O      -2.308486     -3.728596     -0.612536
  O      -3.927273     -3.210615      0.839063
  H      -2.800553     -0.877731      0.533620
  H      -1.977476     -1.794714      1.812216
  H      -0.092658     -2.316303      0.213835
  H      -0.879196     -1.361961     -1.047188
  H      -0.876760      1.204403     -1.245636
  H      -1.929594      1.287324      0.169854
  H       0.643310      2.942195     -0.208250
  H      -0.378816      2.974070      1.242155
  H      -1.443386      5.696224     -0.643724
  H       1.326845     -0.102937     -1.433042
  H       2.080971      1.054515     -0.332500
  H       2.241605     -2.009863     -0.042461
  H       2.942633     -0.844942      1.098256
  H       5.577004     -1.715736     -1.000032
  H      -4.255571     -4.041189      0.451103
31
Coordinates from ORCA-job data/geom_opt/119411/119411 E -1143.631817232982
  C      -2.092541     -1.720556      0.713241
  C      -0.741969     -1.451514      0.050203
  P       0.111223      0.064783      0.730100
  C      -0.889162      1.375224     -0.147915
  C      -0.398561      2.792585      0.145896
  C      -1.276652      3.860807     -0.468947
  O      -2.259802      3.663186     -1.135161
  O      -0.798513      5.100361     -0.225827
  C       1.617669      0.065285     -0.374726
  C       2.655593     -0.978757      0.036190
  C       3.924004     -0.905739     -0.785925
  O       4.134112     -0.132611     -1.684603
  O       4.807553     -1.861759     -0.426000
  C      -2.738733     -3.002876      0.235123
  O      -2.281990     -3.754728     -0.586775
  O      -3.944663     -3.198470      0.811050
  H      -2.809345     -0.902207      0.523709
  H      -1.993105     -1.785981      1.811139
  H      -0.079558     -2.315805      0.223104
  H      -0.863681     -1.367690     -1.044322
  H      -0.896280      1.191650     -1.236930
  H      -1.935137      1.281502      0.188281
  H       0.626496      2.954068     -0.232246
  H      -0.349431      2.981727      1.232812
  H      -1.403879      5.717237     -0.670291
  H       1.323697     -0.083092     -1.428939
  H       2.075737      1.066733     -0.319141
  H       2.260074     -2.005077     -0.063132
  H       2.936097     -0.867739      1.098534
  H       5.575416     -1.756745     -1.012418
  H      -4.294669     -4.023804      0.435705
31
Coordinates from ORCA-job data/geom_opt/119411/119411 E -1143.631968466371
  C      -2.102638     -1.712336      0.690561
  C      -0.748537     -1.449993      0.039691
  P       0.109420      0.064287      0.724190
  C      -0.887061      1.377408     -0.158781
  C      -0.387921      2.791169      0.120707
  C      -1.270634      3.865837     -0.478908
  O      -2.288763      3.670465     -1.089043
  O      -0.796102      5.101199     -0.210550
  C       1.616043      0.059799     -0.384164
  C       2.646692     -0.990725      0.016390
  C       3.924149     -0.913160     -0.793317
  O       4.157736     -0.100951     -1.649348
  O       4.809820     -1.857770     -0.410443
  C      -2.747045     -3.002476      0.227356
  O      -2.261534     -3.784633     -0.546881
  O      -3.940616     -3.201024      0.826742
  H      -2.822462     -0.899668      0.489562
  H      -2.022759     -1.755085      1.791508
  H      -0.090785     -2.315936      0.220257
  H      -0.860833     -1.371000     -1.055460
  H      -0.905275      1.187457     -1.245856
  H      -1.930930      1.292019      0.185289
  H       0.631811      2.953670     -0.270616
  H      -0.307945      2.987205      1.204943
  H      -1.414635      5.734741     -0.612449
  H       1.322272     -0.077526     -1.439183
  H       2.079720      1.057984     -0.321817
  H       2.254262     -2.016830     -0.094884
  H       2.918875     -0.907211      1.083769
  H       5.602795     -1.740736     -0.960853
  H      -4.287124     -4.046182      0.493377
31
Coordinates from ORCA-job data/geom_opt/119411/119411 E -1143.632241530920
  C      -2.100390     -1.709537      0.695995
  C      -0.745543     -1.450598      0.045069
  P       0.110484      0.065303      0.724495
  C      -0.887225      1.378557     -0.153971
  C      -0.389424      2.791946      0.130428
  C      -1.275766      3.860901     -0.471146
  O      -2.290564      3.665844     -1.091767
  O      -0.795968      5.097946     -0.225226
  C       1.619331      0.062580     -0.378429
  C       2.646541     -0.991186      0.022701
  C       3.921850     -0.908944     -0.787807
  O       4.157197     -0.098252     -1.648288
  O       4.799718     -1.868743     -0.428483
  C      -2.737180     -3.002797      0.234944
  O      -2.252624     -3.787900     -0.540799
  O      -3.943196     -3.193006      0.809666
  H      -2.818992     -0.898572      0.487369
  H      -2.018707     -1.750672      1.796209
  H      -0.088474     -2.315797      0.228704
  H      -0.856349     -1.372912     -1.049828
  H      -0.902561      1.190285     -1.240886
  H      -1.930831      1.290762      0.188714
  H       0.629931      2.955118     -0.259570
  H      -0.319131      2.985039      1.215178
  H      -1.414591      5.723957     -0.639667
  H       1.326299     -0.072031     -1.433490
  H       2.084197      1.059385     -0.312280
  H       2.251398     -2.015036     -0.092853
  H       2.919717     -0.904206      1.088850
  H       5.585969     -1.750632     -0.989014
  H      -4.285119     -4.036803      0.466974
31
Coordinates from ORCA-job data/geom_opt/119411/119411 E -1143.632286072075
  C      -2.102622     -1.708303      0.692721
  C      -0.747041     -1.450798      0.044018
  P       0.109350      0.064787      0.723505
  C      -0.887954      1.379421     -0.153151
  C      -0.386669      2.791632      0.128006
  C      -1.278046      3.860746     -0.465350
  O      -2.304313      3.667362     -1.068072
  O      -0.786772      5.096248     -0.238453
  C       1.619156      0.062732     -0.377980
  C       2.644427     -0.993049      0.020699
  C       3.923275     -0.903206     -0.783078
  O       4.167281     -0.078807     -1.628490
  O       4.792941     -1.875263     -0.439371
  C      -2.732305     -3.008135      0.241258
  O      -2.237475     -3.804358     -0.517021
  O      -3.947441     -3.188521      0.798204
  H      -2.823959     -0.902005      0.476381
  H      -2.024908     -1.739946      1.793594
  H      -0.090745     -2.316002      0.229545
  H      -0.855469     -1.373690     -1.051120
  H      -0.907097      1.189345     -1.239645
  H      -1.930446      1.293806      0.193046
  H       0.629900      2.955570     -0.268417
  H      -0.308480      2.984980      1.212212
  H      -1.408652      5.723703     -0.645770
  H       1.326325     -0.068007     -1.433538
  H       2.084891      1.058773     -0.308343
  H       2.251611     -2.016755     -0.102007
  H       2.913846     -0.912931      1.088395
  H       5.582963     -1.752284     -0.993511
  H      -4.285575     -4.037044      0.463522
31
Coordinates from ORCA-job data/geom_opt/119411/119411 E -1143.632366572660
  C      -2.109830     -1.700196      0.678943
  C      -0.750203     -1.449854      0.038574
  P       0.108228      0.064573      0.717169
  C      -0.886465      1.382354     -0.157078
  C      -0.381586      2.792515      0.121579
  C      -1.288476      3.862054     -0.446490
  O      -2.347701      3.672612     -0.992008
  O      -0.769780      5.093406     -0.271460
  C       1.620551      0.061228     -0.380350
  C       2.639080     -1.001575      0.012351
  C       3.930627     -0.891293     -0.767885
  O       4.204527     -0.024161     -1.560671
  O       4.773012     -1.901286     -0.474039
  C      -2.720260     -3.019662      0.260366
  O      -2.190342     -3.854843     -0.430328
  O      -3.960245     -3.172332      0.765345
  H      -2.837581     -0.907727      0.436572
  H      -2.044971     -1.700860      1.781462
  H      -0.098009     -2.316029      0.232263
  H      -0.849693     -1.376392     -1.057705
  H      -0.909301      1.189950     -1.243124
  H      -1.927715      1.298969      0.192566
  H       0.627967      2.963661     -0.288216
  H      -0.286259      2.982252      1.205368
  H      -1.403559      5.724553     -0.653909
  H       1.328154     -0.059066     -1.437308
  H       2.090504      1.054324     -0.301672
  H       2.252201     -2.024260     -0.131668
  H       2.895373     -0.941008      1.084879
  H       5.576133     -1.763452     -1.005336
  H      -4.284385     -4.038457      0.463599
31
Coordinates from ORCA-job data/geom_opt/119411/119411 E -1143.632397427390
  C      -2.115708     -1.698577      0.673230
  C      -0.756035     -1.449943      0.033004
  P       0.105551      0.062207      0.711481
  C      -0.887504      1.383342     -0.158750
  C      -0.372416      2.791213      0.110611
  C      -1.291413      3.863961     -0.431554
  O      -2.383953      3.681873     -0.910110
  O      -0.746375      5.089772     -0.308698
  C       1.617745      0.058205     -0.385497
  C       2.633686     -1.008033      0.003180
  C       3.935436     -0.880444     -0.757337
  O       4.236223      0.025692     -1.495118
  O       4.762107     -1.912199     -0.498430
  C      -2.711203     -3.033327      0.282685
  O      -2.156325     -3.894377     -0.354945
  O      -3.975508     -3.160080      0.730116
  H      -2.850248     -0.917456      0.416222
  H      -2.053344     -1.678554      1.776083
  H      -0.105610     -2.317256      0.226966
  H      -0.854357     -1.375989     -1.063549
  H      -0.920355      1.186170     -1.243853
  H      -1.926069      1.307284      0.200069
  H       0.628922      2.962511     -0.317936
  H      -0.255470      2.978870      1.193026
  H      -1.392465      5.725076     -0.662507
  H       1.324122     -0.056791     -1.442879
  H       2.090063      1.049754     -0.302663
  H       2.253093     -2.030300     -0.156630
  H       2.878975     -0.959876      1.079338
  H       5.578546     -1.755893     -1.003611
  H      -4.290113     -4.036836      0.449846
31
Coordinates from ORCA-job data/geom_opt/119411/119411 E -1143.632446954739
  C      -2.121500     -1.695961      0.663187
  C      -0.759822     -1.448283      0.026043
  P       0.102465      0.061484      0.707577
  C      -0.888002      1.385105     -0.161036
  C      -0.367229      2.791801      0.105009
  C      -1.294241      3.867610     -0.417657
  O      -2.408871      3.691802     -0.844354
  O      -0.728421      5.088052     -0.341873
  C       1.616031      0.057999     -0.386758
  C       2.629604     -1.011606     -0.000025
  C       3.941029     -0.870542     -0.741670
  O       4.261583      0.062126     -1.436543
  O       4.747382     -1.928461     -0.526905
  C      -2.706740     -3.040540      0.290545
  O      -2.127970     -3.924647     -0.291593
  O      -3.982772     -3.157429      0.706968
  H      -2.859301     -0.922089      0.395095
  H      -2.061380     -1.663230      1.766262
  H      -0.111798     -2.317233      0.220907
  H      -0.855170     -1.373141     -1.070942
  H      -0.924467      1.186142     -1.245925
  H      -1.925770      1.313720      0.201056
  H       0.628920      2.963639     -0.334652
  H      -0.238550      2.974826      1.187229
  H      -1.382878      5.725584     -0.675693
  H       1.323241     -0.052622     -1.445073
  H       2.090794      1.048027     -0.299524
  H       2.252969     -2.032829     -0.173611
  H       2.863907     -0.971812      1.079261
  H       5.571350     -1.760976     -1.015995
  H      -4.284393     -4.046516      0.452480
31
Coordinates from ORCA-job data/geom_opt/119411/119411 E -1143.632469711618
  C      -2.117886     -1.689958      0.663563
  C      -0.753161     -1.446875      0.029256
  P       0.107847      0.065100      0.706787
  C      -0.883362      1.384711     -0.166911
  C      -0.374742      2.794690      0.109663
  C      -1.304513      3.866783     -0.416252
  O      -2.418251      3.685847     -0.842148
  O      -0.743447      5.090245     -0.340715
  C       1.620982      0.058737     -0.387906
  C       2.630620     -1.016455     -0.003242
  C       3.944339     -0.877786     -0.741642
  O       4.273242      0.061323     -1.423143
  O       4.742219     -1.945367     -0.538967
  C      -2.705214     -3.034819      0.294177
  O      -2.122781     -3.925565     -0.273180
  O      -3.986459     -3.144274      0.698793
  H      -2.852146     -0.914330      0.391162
  H      -2.057243     -1.656143      1.766632
  H      -0.107737     -2.316559      0.230234
  H      -0.845436     -1.376742     -1.068422
  H      -0.907326      1.189994     -1.253046
  H      -1.924463      1.306034      0.184324
  H       0.624266      2.973627     -0.320292
  H      -0.259388      2.971932      1.194450
  H      -1.402227      5.723149     -0.675036
  H       1.327941     -0.049106     -1.446560
  H       2.100971      1.046134     -0.298810
  H       2.248852     -2.034996     -0.181088
  H       2.862606     -0.978207      1.076659
  H       5.567762     -1.775826     -1.024822
  H      -4.285865     -4.035298      0.448272
31
Coordinates from ORCA-job data/geom_opt/119411/119411 E -1143.632476031118
  C      -2.118670     -1.695964      0.667946
  C      -0.757194     -1.448128      0.027204
  P       0.104497      0.062342      0.707159
  C      -0.887003      1.383526     -0.163753
  C      -0.370414      2.792322      0.107149
  C      -1.298114      3.867810     -0.415776
  O      -2.418226      3.691824     -0.826196
  O      -0.726933      5.087957     -0.356083
  C       1.616605      0.058263     -0.388914
  C       2.630592     -1.012620     -0.001220
  C       3.944493     -0.870659     -0.738913
  O       4.273837      0.072838     -1.413717
  O       4.743411     -1.938694     -0.539899
  C      -2.708125     -3.038455      0.292693
  O      -2.126158     -3.927657     -0.277091
  O      -3.990613     -3.147213      0.695053
  H      -2.853667     -0.917646      0.405894
  H      -2.048676     -1.672029      1.770758
  H      -0.110482     -2.318489      0.221124
  H      -0.855842     -1.373454     -1.069688
  H      -0.917485      1.187159     -1.249470
  H      -1.926650      1.311059      0.193201
  H       0.627396      2.964335     -0.328333
  H      -0.250257      2.969615      1.191431
  H      -1.386524      5.722087     -0.686600
  H       1.323400     -0.054564     -1.447059
  H       2.094278      1.047231     -0.303696
  H       2.251530     -2.032440     -0.176942
  H       2.861215     -0.968793      1.078829
  H       5.569143     -1.764212     -1.023774
  H      -4.289366     -4.037353      0.440473
31
Coordinates from ORCA-job data/geom_opt/119411/119411 E -1143.632477249414
  C      -2.117204     -1.694558      0.669001
  C      -0.755164     -1.448439      0.028889
  P       0.106203      0.063102      0.707021
  C      -0.885951      1.383077     -0.165112
  C      -0.372416      2.792549      0.108008
  C      -1.300978      3.866659     -0.416121
  O      -2.421289      3.689437     -0.825583
  O      -0.731522      5.087481     -0.355887
  C       1.618174      0.058163     -0.389333
  C       2.631512     -1.013238     -0.001463
  C       3.945615     -0.871719     -0.738825
  O       4.276638      0.072891     -1.411361
  O       4.742068     -1.942136     -0.543464
  C      -2.707804     -3.036519      0.293719
  O      -2.125897     -3.927203     -0.273932
  O      -3.991987     -3.141976      0.691205
  H      -2.851190     -0.915337      0.406885
  H      -2.047499     -1.670744      1.771823
  H      -0.109005     -2.318735      0.224824
  H      -0.852986     -1.375622     -1.068179
  H      -0.913810      1.187517     -1.251036
  H      -1.926246      1.308725      0.189492
  H       0.626135      2.966733     -0.324778
  H      -0.255052      2.969130      1.192724
  H      -1.391922      5.721007     -0.685977
  H       1.324870     -0.054763     -1.447431
  H       2.096597      1.046750     -0.304443
  H       2.251990     -2.032898     -0.177003
  H       2.861904     -0.969443      1.078629
  H       5.568128     -1.768201     -1.026986
  H      -4.291914     -4.031691      0.436485
31
Coordinates from ORCA-job data/geom_opt/119411/119411 E -1143.632477736398
  C      -2.114938     -1.693953      0.671374
  C      -0.753043     -1.448792      0.030761
  P       0.107975      0.063863      0.707203
  C      -0.885116      1.382699     -0.165817
  C      -0.375293      2.792821      0.110709
  C      -1.304172      3.865452     -0.415708
  O      -2.422989      3.686500     -0.828699
  O      -0.735526      5.086550     -0.357023
  C       1.619623      0.058305     -0.389761
  C       2.632261     -1.013740     -0.002045
  C       3.945930     -0.873353     -0.740315
  O       4.278590      0.072239     -1.410808
  O       4.741177     -1.944636     -0.545903
  C      -2.708132     -3.033831      0.292867
  O      -2.127824     -3.924577     -0.276487
  O      -3.992653     -3.137234      0.689276
  H      -2.847756     -0.912590      0.412423
  H      -2.044233     -1.673260      1.774172
  H      -0.106906     -2.318876      0.227574
  H      -0.851150     -1.377186     -1.066321
  H      -0.909822      1.188685     -1.252072
  H      -1.926194      1.305884      0.185873
  H       0.624617      2.969543     -0.317791
  H      -0.262197      2.968439      1.196022
  H      -1.395290      5.719331     -0.689839
  H       1.326088     -0.054558     -1.447779
  H       2.098883      1.046450     -0.305177
  H       2.251943     -2.033237     -0.176729
  H       2.863186     -0.969929      1.077918
  H       5.567764     -1.771339     -1.028779
  H      -4.294804     -4.025672      0.432672
