46
Coordinates from ORCA-job data/geom_opt_P_BP86/70071/70071 E -1379.157479383983
  C           4.75229837526229     -3.53309334863173     -1.13540678865001
  O           3.91454535133447     -3.86722190893532     -0.04260912107950
  C           3.03602124433902     -2.92650974499212      0.40767118405281
  C           2.23233863925785     -3.30442445695196      1.50797983470438
  C           1.31181889598446     -2.40264573668807      2.04498762833414
  C           1.14622625372686     -1.10866049970950      1.49473189131457
  C           1.95229880119420     -0.74432498313114      0.40000740167160
  C           2.89398122936524     -1.63577258548199     -0.14328563625196
  P          -0.12024949916073     -0.00312448998287      2.26555180166745
  C          -1.63723662659254     -0.50521899616483      1.33476953605827
  C          -1.62787936423079     -1.33478809563724      0.19789709412019
  C          -2.81797284101213     -1.67559627571975     -0.46863033490500
  C          -4.05074719469401     -1.17420683937397     -0.00109915064002
  C          -4.07341602354337     -0.33991237111824      1.14032511447228
  C          -2.88453636834660     -0.02278725732776      1.79976046745423
  O          -5.26034569658533     -1.43926662298368     -0.57213740102438
  C          -5.29366990248533     -2.27955497859965     -1.71247431950277
  C           0.27537543857108      1.60735449877961      1.44648022367346
  C           1.27808564237803      2.41551483288736      2.03509236773698
  C           1.64747248610059      3.63662227464260      1.46838331649185
  C           1.00359910391512      4.09886314638170      0.29735654131158
  C          -0.00800328768968      3.31313305991803     -0.29331592223704
  C          -0.35836693857837      2.07872027077129      0.28145422665813
  O           1.42176117489373      5.30676174941502     -0.17770072436128
  C           0.79941252451683      5.82161477896546     -1.34167093892912
  H           4.16493719354157     -3.29704195801755     -2.05153365844558
  H           5.41088090222328     -2.66606040688349     -0.90268333838581
  H           5.38159782266231     -4.42115020091974     -1.33074045005180
  H           2.36249681475883     -4.31238748727462      1.92852876844280
  H           0.70054642096433     -2.70549933241000      2.91075120612816
  H           1.84530195639106      0.25718167864806     -0.04375762614194
  H           3.50715852766591     -1.31279284173368     -0.99558560091269
  H          -0.67126968732890     -1.72527843971231     -0.18119168292840
  H          -2.76976243797027     -2.32982105604422     -1.34976647238273
  H          -5.04501034396352      0.03524540906191      1.49395321761087
  H          -2.91771004111461      0.61809943181880      2.69589000196803
  H          -6.35600899686890     -2.36566971495091     -2.00717022819902
  H          -4.89560952424281     -3.29549345574992     -1.49081381326155
  H          -4.71610055305106     -1.84946390794218     -2.56183858666808
  H           1.77905887362216      2.07277326400634      2.95509627101753
  H           2.42857152388519      4.26686465724879      1.91831837073091
  H          -0.52899712079719      3.64851782345030     -1.20037324153988
  H          -1.14404480184097      1.47129564097927     -0.19292615409882
  H          -0.29327971648153      5.97621709292182     -1.19387760358228
  H           0.94779932315638      5.15502197061267     -2.22124753698223
  H           1.27663444686787      6.79796741255944     -1.54619713445834
