35
Coordinates from ORCA-job data/geom_opt_PO_BP86/300563/300563 E -1606.793265240636
  C          -2.88388113369934     -3.26921778606187     -0.45139351750361
  C          -1.73350781935575     -3.56611103665208      0.30139059479042
  C          -0.90071033436834     -2.53051320726390      0.74662101800379
  C          -1.21035961046793     -1.19072243272253      0.43124991886799
  C          -2.36869236006209     -0.89430261513031     -0.31229037054240
  C          -3.20192976674175     -1.93503494757431     -0.75343244165757
  P          -0.16937825637712      0.12324108964503      1.15318945512889
  O          -0.29774043316843      0.25058044915101      2.65525588531615
  C          -0.54773638764533      1.67658856622062      0.26805187097001
  C          -0.95740236648266      2.75738316353555      1.07310542555474
  C          -1.26304962543909      3.99207318410747      0.47822748856803
  C          -1.15912038363241      4.14652274149211     -0.91426986435157
  C          -0.74722086791244      3.06688820436635     -1.71681527744754
  C          -0.43869651140935      1.83059774644672     -1.12993613808944
  C           1.55342982381905     -0.32627874391113      0.60539056085321
  C           2.64697454371337     -0.09786257227384      1.46732189721902
  C           3.95779194863182     -0.46091128946127      1.10245912402551
  C           4.19728347947978     -1.04740205995651     -0.15131486835790
  C           3.12803115462939     -1.27148983327002     -1.03684259477840
  C           1.83113805836723     -0.90070106680302     -0.65020820849188
  F           0.84667774928117     -1.11132985740595     -1.54509980104390
  F           3.35584362556798     -1.82159423770330     -2.23424287802305
  F           5.43717230480171     -1.38858937787532     -0.50423383724205
  F           4.97807611559096     -0.23945394660491      1.93661347147307
  F           2.49017705861214      0.47849471679141      2.65837993427353
  H          -3.53692257998697     -4.08331075128488     -0.80126691078887
  H          -1.48677512018826     -4.61102776795634      0.54377192023178
  H          -0.00490955604574     -2.76049445694481      1.34502366448769
  H          -2.61796498967012      0.15084278445913     -0.54964781470147
  H          -4.10539823591083     -1.70137950281866     -1.33707487336108
  H          -1.02467191378681      2.60491934692502      2.16161706446078
  H          -1.58262938677508      4.83819741125360      1.10559394024820
  H          -1.39875991404144      5.11507570028771     -1.37950354209020
  H          -0.66528572917730      3.19021374419642     -2.80757920867123
  H          -0.11985058015001      0.98610864079681     -1.75811008733066
