! RI BP86 def2-SVP D3BJ TIGHTSCF Opt
%pal
nprocs 6
end

* xyz 0 1
C     -2.947186   -3.284497   -0.470887
C     -1.843364   -3.595354    0.318513
C     -1.004822   -2.577670    0.774980
C     -1.248894   -1.235294    0.435539
C     -2.381148   -0.937319   -0.335586
C     -3.219602   -1.956843   -0.792413
P     -0.134156    0.036831    1.063082
O     -0.274572    0.106508    2.572979
C     -0.502912    1.622351    0.284575
C     -0.863413    2.714034    1.088719
C     -1.139249    3.957702    0.519885
C     -1.056811    4.125923   -0.860354
C     -0.699299    3.051857   -1.672540
C     -0.422040    1.807093   -1.104623
C      1.539115   -0.345608    0.575536
C      2.609156    0.012798    1.399182
C      3.925482   -0.272810    1.041715
C      4.195811   -0.913770   -0.156332
C      3.151098   -1.257581   -0.998664
C      1.837024   -0.969739   -0.635799
F      0.853183   -1.278945   -1.489265
F      3.402346   -1.858029   -2.169940
F      5.460258   -1.187026   -0.505388
F      4.931097    0.081545    1.853345
F      2.384766    0.664413    2.546481
H     -3.604270   -4.075428   -0.823417
H     -1.641674   -4.629203    0.587433
H     -0.161860   -2.833048    1.413855
H     -2.636520    0.090421   -0.580121
H     -4.093152   -1.712925   -1.392259
H     -0.927378    2.593613    2.169924
H     -1.417427    4.794886    1.155564
H     -1.272663    5.095274   -1.302837
H     -0.639309    3.184569   -2.750235
H     -0.157613    0.981271   -1.760646
*