40
Coordinates from ORCA-job data/geom_opt/13831/13831 E -814.130818250530
  C          -0.82918576013976      4.87789701685724      2.08908603448547
  C          -0.07341260756579      3.54977016144759      2.08682616515449
  C          -0.36048468921676      2.69321899122781      0.85040926120158
  C           0.38952971356120      1.35903201347965      0.84910351626625
  P           0.11304079844209      0.34059345775363     -0.69571508523750
  C           1.14181509205607     -1.15760905726835     -0.24964702733716
  C           2.64728401711747     -0.94589672317915     -0.42711084124197
  C           3.47628346963176     -2.19577258473796     -0.11777651743693
  C           4.97905172588703     -1.98184447958357     -0.29450817199525
  C          -1.58578914266595     -0.33938266869665     -0.30536474994904
  C          -2.12949856238635     -1.28677945886751     -1.37759770720953
  C          -3.54984280488952     -1.78053682248953     -1.08841986346290
  C          -4.08688314802557     -2.73134463387994     -2.15745998529190
  H          -0.56577928139228      5.48811471558582      1.20870989103094
  H          -0.60310315418806      5.47361951247823      2.98803256476399
  H          -1.92014642116692      4.71617925532485      2.06161895068738
  H          -0.33010231316073      2.97306917386345      2.99417846700165
  H           1.01378467208201      3.73925084493316      2.14937539861989
  H          -0.09708786988114      3.26177255440682     -0.05981178389724
  H          -1.44905712333713      2.51284306867091      0.78597907122452
  H           0.12202882923800      0.76265376463543      1.74122735192555
  H           1.47504766463763      1.54920243586261      0.91264235777414
  H           0.80792262627343     -1.97906250573871     -0.90695003144771
  H           0.91380461721149     -1.47093692558764      0.78621193641417
  H           2.85032679145217     -0.61643549728996     -1.46209933118039
  H           2.99041728671616     -0.12019765462466      0.22260468386778
  H           3.26527376457518     -2.52292460485410      0.91671674898204
  H           3.13807320289706     -3.02261070593340     -0.76873062387468
  H           5.22014129019107     -1.68447645228705     -1.32898876072358
  H           5.54996308199943     -2.89658952670768     -0.06790690693358
  H           5.34923112912809     -1.18375868391569      0.37114326145563
  H          -1.57012972837637     -0.83852537180782      0.68147206981508
  H          -2.26054636571543      0.52873611739903     -0.20777630935326
  H          -1.46128823801244     -2.16115697684895     -1.48005760492690
  H          -2.10979206532077     -0.77835052732437     -2.35853110981737
  H          -4.22213676463776     -0.90835129134675     -0.99291322292194
  H          -3.56579496342487     -2.28068362805770     -0.10284997852224
  H          -3.45095274965594     -3.62814531200121     -2.24897855556779
  H          -4.11265577356813     -2.24483876760743     -3.14712049918797
  H          -5.10935424636966     -3.06974422329048     -1.92487906315375
