! RIJCOSX M062X def2-TZVP D3ZERO NormalSCF
%pal
nprocs 6
end

* xyz 0 1
  C          -2.29252171049806     -0.83232267712843     -0.97754361826166
  P          -1.58963066169351     -0.56534306956191      0.73452101691008
  C          -2.11004533677527      1.21242122666832      0.99231711287561
  C           0.20846409646046     -0.32286453557806      0.31616285204493
  C           0.66696646096495      0.57461037506947     -0.67235419956066
  C           2.03779176390828      0.70836473313722     -0.93975662628010
  C           2.97414596043848     -0.05523080790972     -0.22005070358818
  C           2.53207318076771     -0.95095811828996      0.76632401909723
  C           1.15793665833021     -1.08260711310382      1.03103373029638
  H          -3.39866629065822     -0.87454887039600     -0.90790973596074
  H          -2.01137601145266     -0.03391687022563     -1.69557471170611
  H          -1.93601484510660     -1.80597575607207     -1.36853307138436
  H          -1.84488472794942      1.87554638688846      0.14236810080999
  H          -3.20895380036166      1.24566037218599      1.13913614306729
  H          -1.62935424223197      1.60156481340292      1.91181675418742
  H          -0.05360640539851      1.18061185258976     -1.24509834164759
  H           2.37954385178625      1.41239357877148     -1.71452656782679
  H           4.04971941183239      0.04966789957515     -0.43019923942079
  H           3.26004258227766     -1.55157920893394      1.33344337314871
  H           0.80837006535949     -1.78549521108921      1.80442171319935
*