76
Coordinates from ORCA-job data/geom_opt/20851/20851 E -1285.256039813408
  C          -4.19911332640737      6.26757189424799      1.62127620108024
  C          -2.76291221288907      5.76640188135774      1.47223730446646
  C          -2.51743794815810      5.03589495547449      0.14897409728953
  C          -1.07251552303547      4.57764015856713     -0.08094365057552
  C          -0.57893743139068      3.51929948050869      0.90942744991240
  C           0.84982369732441      3.02331138006702      0.65663899469277
  C           1.09577035256069      2.39192149173544     -0.72243713519699
  C           0.12369109047397      1.26871633248698     -1.10740442781052
  P          -0.03555643952472     -0.10425372541875      0.15743233789559
  C          -1.10636415973697     -1.26180766851475     -0.86178996381813
  C          -1.86128644830770     -2.32862009517348     -0.05445140488211
  C          -2.84683105917499     -1.76853484459558      0.98417664897441
  C          -4.02850957674797     -0.93794229092390      0.45272594209568
  C          -5.27327318685565     -1.72805086615831      0.02006934047058
  C          -5.13012225860800     -2.65927510816453     -1.19248634343852
  C          -4.65487340049490     -1.99194954737530     -2.49015934237442
  C          -5.55005897337878     -0.85104283700248     -2.97609682326231
  C           1.64628691143676     -0.89119530820169     -0.05641446755960
  C           1.83467400807280     -2.18560752174640      0.74045524893410
  C           3.24120881743075     -2.78921276985514      0.63182017506958
  C           4.34679887043866     -1.93228203693562      1.25650081730009
  C           5.73601358370072     -2.58146387420445      1.25415562624648
  C           6.34179956223287     -2.77719248151458     -0.13946530022006
  C           7.73617916456937     -3.41694806376806     -0.14395639996598
  C           8.83033561494235     -2.56415280285751      0.50136704535375
  H          -4.46409128757728      6.96831734318606      0.81136845770555
  H          -4.35095349409700      6.79104014132274      2.57894240404237
  H          -4.91840903721458      5.43205072380208      1.58030337290653
  H          -2.06187543488454      6.61822418759953      1.54871929748983
  H          -2.52081460033767      5.10027814068933      2.31820996556193
  H          -3.18931991504521      4.15859730439050      0.08983343081574
  H          -2.81853773654597      5.70015038956722     -0.68144171196092
  H          -0.99414504999964      4.18352693424488     -1.10872650488631
  H          -0.39894376363101      5.45483205657101     -0.04390759282809
  H          -1.27232994563731      2.65918951553639      0.90204911329157
  H          -0.62438248260372      3.92276794818243      1.93492968731757
  H           1.10243779308372      2.28839582441014      1.44028125341159
  H           1.55579503193309      3.86335869223663      0.78590382406431
  H           1.05098756890935      3.17128191309709     -1.50310643634968
  H           2.13039739859864      2.00892838030715     -0.75418415011808
  H           0.41338708171140      0.83832774659056     -2.08262760490793
  H          -0.89355533659437      1.67602710196631     -1.23720203385073
  H          -1.82628289786422     -0.61904050491648     -1.39530690589365
  H          -0.48717697389231     -1.73656731476003     -1.64312622878555
  H          -1.13312576629924     -2.96675879776382      0.47453704773599
  H          -2.38258384959450     -2.99719423960045     -0.75866233415637
  H          -3.24415533814030     -2.60628928782144      1.58518765334367
  H          -2.26742139442152     -1.14259370775370      1.68287687668161
  H          -3.69366944186576     -0.28008643928111     -0.36837120865110
  H          -4.34509396429482     -0.24914261052249      1.25437740261354
  H          -5.61931234643176     -2.32982027803479      0.87979139656668
  H          -6.08573045414403     -1.00739272827934     -0.17898889438777
  H          -6.11255043875290     -3.13075358237668     -1.37828602318092
  H          -4.44756501628140     -3.49001317186634     -0.94561445892197
  H          -4.59242285542692     -2.76489202928557     -3.27618492934799
  H          -3.62482677752160     -1.61772883688816     -2.36328247513088
  H          -6.59418332259308     -1.18680718461709     -3.09792869518463
  H          -5.55745605005950     -0.00569202098020     -2.26930393829468
  H          -5.20965180884384     -0.46169490479502     -3.94912594130361
  H           2.37755514671151     -0.13565638466775      0.27533075802760
  H           1.84013355480234     -1.07024837273701     -1.13080616078316
  H           1.10365578195378     -2.93526132039853      0.39355193701942
  H           1.59568865747336     -1.99703553150343      1.80289190563929
  H           3.46600310437790     -2.97954389269297     -0.43257737118075
  H           3.24217722374261     -3.77886737181952      1.12381296996885
  H           4.06151948593043     -1.69788289188515      2.29805751333797
  H           4.40812693205786     -0.96030951902405      0.73500705914293
  H           6.41340211315064     -1.95870767826642      1.86264552907683
  H           5.68367296604592     -3.56086544387665      1.76655437771570
  H           5.66717207381571     -3.40351152706064     -0.74760384211219
  H           6.38871471992871     -1.79751211259829     -0.65249326237941
  H           7.68478345605845     -4.39728282643174      0.36489717822130
  H           8.02062391050751     -3.63550091344326     -1.18820137005879
  H           9.81687566175823     -3.04732927052242      0.41500036315357
  H           8.64281398938327     -2.39322448178296      1.57351266496593
  H           8.89985640018857     -1.57531389748151      0.01642266415978
