! RIJONX B3LYP def2-SVP D3BJ TIGHTSCF Opt
%pal
nprocs 6
end

* xyz 0 1
C     -0.698366   -2.421055   -1.635688
C     -1.190981   -3.686835   -1.301863
C     -1.868795   -3.868670   -0.101375
C     -2.056891   -2.796557    0.765082
C     -1.562564   -1.530736    0.428945
C     -0.872772   -1.320769   -0.775245
P     -0.194841    0.286292   -1.302955
C      1.555433    0.216422   -0.800587
C      2.423215    1.202669   -1.306233
C      3.780320    1.215771   -0.967999
C      4.289289    0.238459   -0.119777
C      3.452953   -0.749039    0.391047
C      2.094951   -0.759803    0.051398
Cl     5.956737    0.251256    0.300201
C     -0.940584    1.483326   -0.148966
C     -2.231063    1.962272   -0.443382
C     -2.870003    2.883537    0.392880
C     -2.223880    3.341317    1.535960
C     -0.946901    2.885540    1.847643
C     -0.309643    1.963166    1.009326
Cl    -3.005903    4.472782    2.568021
Cl    -2.474944   -5.423284    0.314181
H     -0.171022   -2.303898   -2.581626
H     -1.041600   -4.520023   -1.983350
H     -2.586858   -2.933935    1.704111
H     -1.726683   -0.720448    1.134815
H      2.048395    1.978710   -1.972481
H      4.428567    1.989251   -1.371047
H      3.846682   -1.515420    1.053730
H      1.474457   -1.545596    0.474800
H     -2.757680    1.618812   -1.332948
H     -3.867098    3.236400    0.143419
H     -0.437766    3.241324    2.739669
H      0.685839    1.628762    1.290296
*