58
Coordinates from ORCA-job data/geom_opt_P_BP86/77831/77831 E -1050.252748942199
  C           0.46276708092715      5.63976510026080      0.71667283712385
  C           0.94828123525027      4.96806608029627     -0.57331839773273
  C           0.88341538223616      3.43193737599588     -0.55698042604696
  C          -0.53349720632110      2.85141773541810     -0.43218767432896
  C          -0.58735777320627      1.31496850126529     -0.50263549072619
  C          -0.28838551446193      0.75519439257068     -1.90108132822908
  P          -0.09286902457054     -1.10520522446019     -2.15291522262777
  C           1.67627325367118     -1.39439616981090     -1.58553631928266
  C           2.18066738163918     -0.80642108307462     -0.26252430117726
  C           3.62878824568676     -1.19733083093121      0.06363634869457
  C           4.13695443133328     -0.58547916865587      1.37601562579589
  C           5.57550559043339     -0.97276885106867      1.75640366733800
  C           6.64741076218862     -0.46095758013231      0.78683462330493
  C          -1.05055347044785     -1.81409910348271     -0.70435569321602
  C          -2.56846340441916     -1.73860581875473     -0.91732593321399
  C          -3.37682777260225     -2.38977913358197      0.21187928970527
  C          -4.89417204381308     -2.30797261297722      0.00976874586536
  C          -5.70693204734350     -2.96812611836320      1.13091813733714
  C          -7.22162622136350     -2.87572190840457      0.92231683295809
  H          -0.61017914573333      5.43689696579549      0.91297133997929
  H           1.03453618493150      5.27744991631719      1.59760724201179
  H           0.58450100691783      6.74122355917581      0.67006094790432
  H           0.35362001706844      5.34591326074644     -1.43566798205256
  H           1.99698359716160      5.27872631942998     -0.77352999821172
  H           1.35942228757052      3.04776599281426     -1.48566553982040
  H           1.50658469844661      3.04537813554614      0.28253322259324
  H          -0.98191857183311      3.17989085663652      0.53008778825608
  H          -1.18002475590897      3.28208641624455     -1.23134520424037
  H           0.11977849177612      0.89825823208929      0.24426711030822
  H          -1.59493896417148      0.97300043235695     -0.18437848734929
  H          -1.08799952867623      1.08025405320148     -2.60204909902630
  H           0.64912573898081      1.19063462729913     -2.31232248900387
  H           1.79668151542234     -2.50155664785059     -1.58267714755697
  H           2.31501429961649     -1.03747071311865     -2.42430624391553
  H           2.11349037426602      0.30234323842102     -0.29700164249896
  H           1.52039957954175     -1.12567762861394      0.57396193829243
  H           4.28303726962316     -0.88726753567318     -0.78118026920123
  H           3.71130838419883     -2.30724229376237      0.11632900685395
  H           3.45060558688325     -0.88590476719440      2.19899955152679
  H           4.06090365007075      0.52477880357851      1.31311577009758
  H           5.64503396126696     -2.08120047863470      1.83692809663805
  H           5.79103927033233     -0.58404070844293      2.77560407210654
  H           7.66738143255490     -0.72060052762017      1.13677286663536
  H           6.53040568671342     -0.89168455423935     -0.22890299761581
  H           6.60080461794400      0.64428174716837      0.68459649085204
  H          -0.73522034724092     -2.87827830496245     -0.62556857726297
  H          -0.76950666582703     -1.33189686953563      0.25682857558462
  H          -2.88066783687925     -0.67459724187620     -1.01984116374752
  H          -2.82747488500026     -2.21758045938143     -1.88783455068691
  H          -3.07296333845279     -3.45698732138028      0.31044784910343
  H          -3.10635074223203     -1.91158731719646      1.18105277981309
  H          -5.16146924235683     -2.77773944289817     -0.96446153630410
  H          -5.19560260398076     -1.23924631360624     -0.08286728438000
  H          -5.40503370488356     -4.03607806308613      1.21900540428223
  H          -5.43334064982847     -2.50010113053580      2.10341235772528
  H          -7.52895139224928     -3.36774162506733     -0.02468683992468
  H          -7.55655492364142     -1.81835322154401      0.86640531512692
  H          -7.78183723720873     -3.36053597270958      1.74771200556647
