! RIJCOSX M062X def2-TZVP D3ZERO NormalSCF
%pal
nprocs 6
end

* xyz 0 1
  C           0.57365510989854      3.33280978009306     -0.08426067899291
  C          -0.49545604727340      2.27251277354621      0.19869354836584
  P          -0.20316689507101      0.76033642633419     -0.81274652393747
  O          -0.09645379775616      1.01645374832720     -2.30796959343281
  C          -1.56268412312752     -0.39710129955893     -0.39721114629655
  C          -2.02387812801745     -0.64269756587131      0.91249652399681
  C          -3.06838681698726     -1.55494147911056      1.12934165019689
  C          -3.65720680669981     -2.22276895770948      0.04126691459149
  C          -3.20469156235295     -1.97364726140412     -1.26554553001318
  C          -2.16136447801014     -1.06108929601794     -1.48661087477108
  C           1.33981025660644      0.02127810943196     -0.14398628696769
  C           2.36025741217941     -0.23411585219183     -1.08064457369887
  C           3.57895451724262     -0.78795604953024     -0.65681055674102
  C           3.78232935259811     -1.08571971809543      0.70107410580545
  C           2.76559463676743     -0.82975721993492      1.63841485218395
  C           1.54597658961687     -0.27717242259594      1.21818748660197
  H           1.57734955199318      2.98652384754433      0.23626377516741
  H           0.62243482137474      3.54544772676500     -1.17047130405842
  H           0.35067371972129      4.27801349698931      0.44987397659692
  H          -0.53359564294038      1.99496774902592      1.27369730238945
  H          -1.50958286963135      2.62742891889023     -0.08327601318024
  H          -1.57761475386818     -0.12015103029880      1.77270947848840
  H          -3.42736722092965     -1.74389208928994      2.15270876174340
  H          -4.47609436391812     -2.93791484898687      0.21424106256813
  H          -3.66983397526938     -2.49148239259257     -2.11848003412210
  H          -1.79296849490755     -0.83626912123376     -2.49981953366540
  H           2.16961511688357      0.01468955487146     -2.13646237804651
  H           4.37530129851765     -0.98725460700383     -1.39045038384306
  H           4.73811486039123     -1.51943739290929      1.03326446574774
  H           2.92463283360907     -1.06275543502405      2.70252132996564
  H           0.75564789936017     -0.08433809245908      1.95998817735782
*