40
Coordinates from ORCA-job data/geom_opt/83681/83681 E -814.109163299790
  C          -0.69382508266439     -1.71444068102121      1.56871123901816
  C          -1.25510747285346     -1.28002563566187      0.20567570377721
  C          -2.68404852029475     -0.74268678033502      0.41474682032291
  C          -1.40991718565567     -2.51773319887424     -0.70629408353351
  P          -0.23257381424424      0.02155262011746     -0.80591085867965
  C          -0.48148754937997      1.73873479985921      0.05961001809689
  C          -1.82529364591009      2.29770394190974     -0.46027453928137
  C          -0.47868089368039      1.76402087109309      1.59587532094675
  C           0.59553681060980      2.71609523013454     -0.44885636413221
  C           1.63887246138577     -0.44960845358125     -0.60853888927759
  C           2.30366238172752     -0.14984984529909      0.74404971670969
  C           2.39813693739223      0.29411521158951     -1.73031535835276
  C           1.81297796831808     -1.94883677233822     -0.91819726928453
  H           0.26998334443041     -2.23281045402535      1.47998678201959
  H          -1.39620382039879     -2.42095903044038      2.04646910874032
  H          -0.56185730212566     -0.86732135221774      2.25429412969657
  H          -2.73289955227669      0.07315437354397      1.14673163507128
  H          -3.13167109897082     -0.39414284659604     -0.52844873505816
  H          -3.31717501279896     -1.56096214517254      0.79863155180065
  H          -0.46852044524908     -3.04990901329605     -0.87968388259712
  H          -1.82380403677343     -2.23576055504970     -1.68665586577318
  H          -2.10809192907971     -3.23114745617185     -0.23447034371667
  H          -2.69521295637791      1.73764150332679     -0.10089091576835
  H          -1.85366817172189      2.29721076600477     -1.56076386300126
  H          -1.94200374353272      3.34059111139287     -0.11705993625345
  H           0.46156602737564      1.38779733156949      2.01993905612003
  H          -1.30240418859711      1.17884479759141      2.02503901398563
  H          -0.60635035744252      2.80429978906954      1.94556547847822
  H           0.65370049452256      2.72329257266395     -1.54795879221553
  H           1.59389446163335      2.50049299753518     -0.04812467982534
  H           0.32894390162697      3.73664502882563     -0.12472765948138
  H           3.35215620118123     -0.49748791707467      0.72247107002906
  H           1.80434527708195     -0.66055532515359      1.57762913184731
  H           2.32696872079367      0.92429066085797      0.96999474386656
  H           2.42552568782148      1.37989245709742     -1.58916800003555
  H           1.94614920751693      0.09194441340652     -2.71354831950207
  H           3.44352586770560     -0.06013102658607     -1.75665934392375
  H           1.41630606332389     -2.59851570524943     -0.12817228223799
  H           2.89052198882876     -2.16906179380894     -1.00915325822769
  H           1.33802097675240     -2.22637648963580     -1.87154628036772
