40
Coordinates from ORCA-job data/geom_opt/83681/83681 E -814.098089733392
  C      -0.728450     -1.706077      1.580154
  C      -1.252068     -1.260757      0.209030
  C      -2.704228     -0.770032      0.397222
  C      -1.392408     -2.511102     -0.699513
  P      -0.191138      0.016725     -0.659923
  C      -0.466731      1.726197      0.057269
  C      -1.823027      2.281406     -0.453330
  C      -0.455432      1.789898      1.589679
  C       0.573315      2.742347     -0.463058
  C       1.621324     -0.456911     -0.602837
  C       2.315479     -0.182835      0.737126
  C       2.382873      0.302546     -1.721665
  C       1.837273     -1.946622     -0.947980
  H       0.217805     -2.246806      1.513208
  H      -1.435975     -2.392467      2.062078
  H      -0.582301     -0.869635      2.267413
  H      -2.785972      0.011389      1.155293
  H      -3.137110     -0.402535     -0.540337
  H      -3.354029     -1.582696      0.747274
  H      -0.471390     -3.086556     -0.791276
  H      -1.721078     -2.243628     -1.711249
  H      -2.134358     -3.210502     -0.293323
  H      -2.688069      1.774480     -0.026046
  H      -1.903730      2.216338     -1.545316
  H      -1.941372      3.338614     -0.183243
  H       0.465329      1.390840      2.021269
  H      -1.291174      1.249499      2.038872
  H      -0.544375      2.827220      1.936125
  H       0.646062      2.730350     -1.556687
  H       1.566248      2.577146     -0.040248
  H       0.302880      3.766966     -0.176312
  H       3.347812     -0.554406      0.723103
  H       1.816117     -0.669879      1.577806
  H       2.381891      0.882811      0.965722
  H       2.478792      1.371637     -1.532766
  H       1.899959      0.178212     -2.698659
  H       3.410633     -0.069919     -1.819763
  H       1.498607     -2.612944     -0.152182
  H       2.903684     -2.171366     -1.080107
  H       1.338330     -2.226948     -1.882822
40
Coordinates from ORCA-job data/geom_opt/83681/83681 E -814.105724918674
  C      -0.670152     -1.697185      1.542243
  C      -1.239122     -1.255349      0.180224
  C      -2.670782     -0.729416      0.408968
  C      -1.406801     -2.501428     -0.721394
  P      -0.216829      0.019882     -0.768455
  C      -0.474615      1.707699      0.041436
  C      -1.831119      2.269284     -0.447134
  C      -0.458409      1.724194      1.582130
  C       0.584033      2.710317     -0.461427
  C       1.609047     -0.442509     -0.612370
  C       2.267445     -0.126100      0.744377
  C       2.388097      0.295048     -1.727276
  C       1.807294     -1.945474     -0.896258
  H       0.278439     -2.242649      1.442312
  H      -1.370724     -2.382210      2.051836
  H      -0.498265     -0.850470      2.219928
  H      -2.712083      0.072588      1.158732
  H      -3.128532     -0.365839     -0.523130
  H      -3.311994     -1.539340      0.792381
  H      -0.481107     -3.074939     -0.847329
  H      -1.771756     -2.226957     -1.722632
  H      -2.139786     -3.194871     -0.276728
  H      -2.695933      1.737564     -0.033395
  H      -1.908521      2.235983     -1.544354
  H      -1.939496      3.321519     -0.135855
  H       0.468437      1.307350      1.998004
  H      -1.299480      1.164569      2.014498
  H      -0.547755      2.758101      1.959973
  H       0.646123      2.725161     -1.559771
  H       1.584505      2.509477     -0.054062
  H       0.320569      3.729604     -0.136379
  H       3.308234     -0.494762      0.767035
  H       1.741353     -0.596358      1.585575
  H       2.314763      0.953296      0.944523
  H       2.462646      1.376347     -1.563063
  H       1.926751      0.135031     -2.713447
  H       3.423622     -0.080565     -1.777581
  H       1.427452     -2.583818     -0.086629
  H       2.881976     -2.172060     -0.984876
  H       1.332471     -2.250718     -1.840628
40
Coordinates from ORCA-job data/geom_opt/83681/83681 E -814.107643668080
  C      -0.730784     -1.686924      1.621054
  C      -1.249116     -1.274187      0.224204
  C      -2.696395     -0.771093      0.382009
  C      -1.344446     -2.531089     -0.665857
  P      -0.237120      0.019882     -0.778815
  C      -0.479125      1.733637      0.061775
  C      -1.818887      2.295127     -0.460131
  C      -0.477861      1.803587      1.606146
  C       0.602432      2.693326     -0.468513
  C       1.621227     -0.451050     -0.616863
  C       2.322811     -0.216223      0.740617
  C       2.367525      0.346039     -1.706304
  C       1.791209     -1.934426     -0.995460
  H       0.238624     -2.206745      1.570936
  H      -1.445590     -2.388621      2.097139
  H      -0.618969     -0.826101      2.296805
  H      -2.789679      0.050982      1.107841
  H      -3.123739     -0.440931     -0.579589
  H      -3.317501     -1.605625      0.755724
  H      -0.391034     -3.070812     -0.759590
  H      -1.688740     -2.271786     -1.681179
  H      -2.074555     -3.233904     -0.221148
  H      -2.696662      1.777556     -0.050641
  H      -1.871544      2.235614     -1.560409
  H      -1.901533      3.359259     -0.167390
  H       0.444806      1.399307      2.046870
  H      -1.329555      1.261396      2.046338
  H      -0.569082      2.858428      1.936462
  H       0.664645      2.672235     -1.569740
  H       1.602434      2.483866     -0.058035
  H       0.335982      3.722703     -0.166829
  H       3.365025     -0.592812      0.698502
  H       1.819415     -0.738383      1.567673
  H       2.378829      0.852265      1.001567
  H       2.431508      1.421863     -1.488892
  H       1.880295      0.226210     -2.688659
  H       3.404056     -0.034032     -1.784811
  H       1.409116     -2.623136     -0.226846
  H       2.870493     -2.144032     -1.110881
  H       1.301484     -2.171372     -1.955078
40
Coordinates from ORCA-job data/geom_opt/83681/83681 E -814.105415292346
  C      -0.678944     -1.851929      1.512279
  C      -1.240090     -1.298058      0.186388
  C      -2.633213     -0.704887      0.468847
  C      -1.488382     -2.467864     -0.790680
  P      -0.208707      0.024689     -0.807477
  C      -0.502889      1.737668      0.075970
  C      -1.845218      2.267676     -0.473124
  C      -0.536666      1.794867      1.616586
  C       0.561805      2.732282     -0.421179
  C       1.676153     -0.428913     -0.585468
  C       2.394933     -0.045301      0.724618
  C       2.415506      0.219259     -1.775215
  C       1.836790     -1.945614     -0.794158
  H       0.244425     -2.429523      1.366049
  H      -1.421423     -2.536281      1.965587
  H      -0.473111     -1.057798      2.242093
  H      -2.624129      0.064270      1.252046
  H      -3.086838     -0.273628     -0.438168
  H      -3.286289     -1.526141      0.815553
  H      -0.590845     -3.060915     -0.996376
  H      -1.879693     -2.098980     -1.752808
  H      -2.241068     -3.144747     -0.345036
  H      -2.714196      1.712959     -0.101468
  H      -1.862377      2.228869     -1.574569
  H      -1.962056      3.321953     -0.159686
  H       0.390208      1.424116      2.073734
  H      -1.376321      1.220047      2.032001
  H      -0.673733      2.844536      1.940104
  H       0.646933      2.725101     -1.519646
  H       1.555979      2.549884      0.005968
  H       0.247218      3.745971     -0.113353
  H       3.433568     -0.426477      0.697688
  H       1.907653     -0.474921      1.609872
  H       2.451889      1.043517      0.863487
  H       2.490214      1.308682     -1.697529
  H       1.914644     -0.021069     -2.727337
  H       3.444214     -0.185731     -1.811560
  H       1.470788     -2.539247      0.052225
  H       2.915564     -2.158361     -0.907302
  H       1.327702     -2.289964     -1.708953
40
Coordinates from ORCA-job data/geom_opt/83681/83681 E -814.108504676809
  C      -0.706958     -1.701231      1.553020
  C      -1.254434     -1.273817      0.183125
  C      -2.679611     -0.722057      0.389801
  C      -1.427695     -2.520846     -0.717454
  P      -0.226856      0.020244     -0.831085
  C      -0.480705      1.722949      0.058016
  C      -1.846968      2.273281     -0.418069
  C      -0.434083      1.733485      1.592717
  C       0.568423      2.725803     -0.462349
  C       1.643458     -0.442870     -0.608270
  C       2.293246     -0.123486      0.746151
  C       2.421625      0.279046     -1.734992
  C       1.832545     -1.946054     -0.894218
  H       0.242654     -2.242769      1.474335
  H      -1.426280     -2.381492      2.037896
  H      -0.556229     -0.847304      2.225510
  H      -2.719819      0.097274      1.115191
  H      -3.125426     -0.375747     -0.553405
  H      -3.316606     -1.532494      0.780134
  H      -0.503009     -3.085503     -0.857971
  H      -1.807163     -2.241238     -1.711082
  H      -2.158202     -3.203431     -0.252403
  H      -2.699314      1.715487     -0.020210
  H      -1.917971      2.262099     -1.515479
  H      -1.953935      3.317065     -0.079210
  H       0.516290      1.350155      1.986174
  H      -1.246472      1.146110      2.036611
  H      -0.550901      2.768137      1.954789
  H       0.606208      2.744878     -1.560722
  H       1.575657      2.525988     -0.082534
  H       0.287705      3.736056     -0.122278
  H       3.335963     -0.480759      0.746102
  H       1.776442     -0.612877      1.581323
  H       2.319843      0.953738      0.951131
  H       2.479498      1.361038     -1.595873
  H       1.964867      0.087872     -2.717048
  H       3.455891     -0.102341     -1.759862
  H       1.449283     -2.585319     -0.093649
  H       2.911581     -2.152775     -0.984729
  H       1.357456     -2.246296     -1.839130
40
Coordinates from ORCA-job data/geom_opt/83681/83681 E -814.108129729603
  C      -0.676621     -1.724949      1.570263
  C      -1.252601     -1.288644      0.213369
  C      -2.694544     -0.789505      0.436572
  C      -1.378503     -2.527058     -0.703339
  P      -0.247622      0.024929     -0.784099
  C      -0.486686      1.744283      0.058969
  C      -1.802759      2.346595     -0.488633
  C      -0.507636      1.783498      1.595649
  C       0.630510      2.685092     -0.437654
  C       1.614502     -0.442047     -0.608685
  C       2.289656     -0.145659      0.739152
  C       2.363000      0.313061     -1.732224
  C       1.787862     -1.942220     -0.925835
  H       0.295491     -2.226754      1.472368
  H      -1.363002     -2.446234      2.048819
  H      -0.553452     -0.880899      2.261646
  H      -2.758529      0.013660      1.181024
  H      -3.157395     -0.440286     -0.498593
  H      -3.305860     -1.626355      0.814342
  H      -0.426142     -3.051591     -0.853265
  H      -1.771223     -2.249599     -1.693505
  H      -2.077575     -3.249784     -0.248567
  H      -2.699789      1.839296     -0.120550
  H      -1.824535      2.317167     -1.588894
  H      -1.877544      3.402470     -0.176219
  H       0.407408      1.370581      2.039321
  H      -1.363428      1.238201      2.015655
  H      -0.597571      2.830361      1.936793
  H       0.716342      2.674809     -1.535348
  H       1.612861      2.444169     -0.009319
  H       0.391097      3.717777     -0.133473
  H       3.334879     -0.502241      0.715980
  H       1.788281     -0.650627      1.576201
  H       2.321996      0.928900      0.963311
  H       2.408967      1.397420     -1.566705
  H       1.889575      0.140249     -2.710734
  H       3.403498     -0.050330     -1.786810
  H       1.409567     -2.595527     -0.128318
  H       2.862703     -2.161863     -1.038802
  H       1.294821     -2.220348     -1.869858
40
Coordinates from ORCA-job data/geom_opt/83681/83681 E -814.108661291290
  C      -0.684857     -1.751423      1.565676
  C      -1.250314     -1.283220      0.213354
  C      -2.670349     -0.730667      0.444871
  C      -1.424583     -2.503892     -0.717255
  P      -0.220338      0.017490     -0.786973
  C      -0.486242      1.746425      0.044855
  C      -1.845906      2.273335     -0.465966
  C      -0.463431      1.815940      1.581431
  C       0.567288      2.725577     -0.510776
  C       1.646767     -0.457347     -0.584833
  C       2.307948     -0.206784      0.780981
  C       2.414110      0.322891     -1.676187
  C       1.818150     -1.946918     -0.943536
  H       0.271333     -2.283185      1.460018
  H      -1.395029     -2.456127      2.037568
  H      -0.534313     -0.918426      2.265384
  H      -2.700954      0.070761      1.195483
  H      -3.121639     -0.355506     -0.487396
  H      -3.310171     -1.549653      0.817392
  H      -0.490986     -3.055111     -0.886959
  H      -1.821477     -2.199464     -1.698719
  H      -2.142241     -3.208549     -0.260205
  H      -2.703711      1.720989     -0.064324
  H      -1.898876      2.229481     -1.565425
  H      -1.963073      3.328305     -0.159532
  H       0.483712      1.457744      2.005191
  H      -1.279768      1.237429      2.036833
  H      -0.595663      2.865890      1.903651
  H       0.608609      2.700760     -1.611292
  H       1.576340      2.536955     -0.119955
  H       0.288900      3.750986     -0.211252
  H       3.353317     -0.567398      0.755349
  H       1.796432     -0.737223      1.595643
  H       2.342432      0.860065      1.040202
  H       2.457292      1.402821     -1.485860
  H       1.956536      0.171203     -2.666572
  H       3.455251     -0.044113     -1.718930
  H       1.418847     -2.623060     -0.174789
  H       2.896188     -2.164430     -1.040058
  H       1.344466     -2.192549     -1.907090
40
Coordinates from ORCA-job data/geom_opt/83681/83681 E -814.108498775427
  C      -0.697195     -1.674444      1.576260
  C      -1.248785     -1.268024      0.202071
  C      -2.673904     -0.717053      0.399927
  C      -1.412433     -2.522679     -0.687485
  P      -0.226090      0.021769     -0.828090
  C      -0.489731      1.726131      0.063212
  C      -1.833938      2.283779     -0.457762
  C      -0.503302      1.718161      1.598040
  C       0.583103      2.725815     -0.408697
  C       1.650584     -0.446947     -0.628295
  C       2.316622     -0.139628      0.720880
  C       2.421406      0.274437     -1.758766
  C       1.820975     -1.948868     -0.925758
  H       0.260243     -2.203598      1.504298
  H      -1.408921     -2.360538      2.066210
  H      -0.560097     -0.811358      2.240964
  H      -2.715229      0.112055      1.115793
  H      -3.118676     -0.382469     -0.548660
  H      -3.311075     -1.523989      0.798959
  H      -0.479603     -3.071028     -0.837703
  H      -1.810220     -2.255557     -1.677748
  H      -2.125525     -3.214943     -0.208210
  H      -2.701598      1.717713     -0.103793
  H      -1.859537      2.290712     -1.557597
  H      -1.954578      3.322554     -0.106467
  H       0.432754      1.333969      2.023774
  H      -1.329955      1.120890      2.002614
  H      -0.638813      2.748889      1.967638
  H       0.659995      2.755161     -1.504890
  H       1.574617      2.515735      0.005670
  H       0.295772      3.735183     -0.069258
  H       3.359315     -0.499654      0.703707
  H       1.810550     -0.633285      1.558763
  H       2.350551      0.936639      0.932734
  H       2.477121      1.355606     -1.624227
  H       1.960576      0.077872     -2.738296
  H       3.456696     -0.106141     -1.787447
  H       1.427338     -2.589824     -0.130380
  H       2.898003     -2.168726     -1.017746
  H       1.342978     -2.234320     -1.874240
40
Coordinates from ORCA-job data/geom_opt/83681/83681 E -814.108840403416
  C      -0.716817     -1.721865      1.558945
  C      -1.259634     -1.280255      0.190119
  C      -2.697643     -0.759965      0.379056
  C      -1.387295     -2.513952     -0.731190
  P      -0.230293      0.032747     -0.802528
  C      -0.477602      1.746402      0.072870
  C      -1.836155      2.297944     -0.415678
  C      -0.435225      1.774970      1.609027
  C       0.581164      2.730248     -0.460852
  C       1.638979     -0.444909     -0.601038
  C       2.314875     -0.120244      0.740696
  C       2.400407      0.266140     -1.742314
  C       1.794112     -1.953019     -0.877948
  H       0.252554     -2.231991      1.481274
  H      -1.421771     -2.438004      2.018882
  H      -0.602928     -0.879643      2.253730
  H      -2.767314      0.049898      1.115583
  H      -3.134515     -0.410455     -0.568844
  H      -3.325944     -1.589242      0.747420
  H      -0.438845     -3.041586     -0.881263
  H      -1.776031     -2.229045     -1.721060
  H      -2.094144     -3.232030     -0.279276
  H      -2.695113      1.741701     -0.025767
  H      -1.895072      2.285768     -1.515083
  H      -1.943093      3.344373     -0.079607
  H       0.516343      1.400927      2.009656
  H      -1.246749      1.189288      2.060027
  H      -0.556420      2.816057      1.959520
  H       0.617755      2.733852     -1.561078
  H       1.588907      2.522900     -0.078898
  H       0.312266      3.749429     -0.133853
  H       3.358577     -0.482947      0.723027
  H       1.812475     -0.601947      1.589280
  H       2.352980      0.959664      0.938072
  H       2.452033      1.353151     -1.616652
  H       1.933282      0.059176     -2.717624
  H       3.437987     -0.110450     -1.773247
  H       1.397495     -2.580390     -0.069612
  H       2.868870     -2.185363     -0.973150
  H       1.307541     -2.247334     -1.820621
40
Coordinates from ORCA-job data/geom_opt/83681/83681 E -814.108966989010
  C      -0.705061     -1.732437      1.563821
  C      -1.262299     -1.289319      0.201333
  C      -2.690925     -0.751836      0.411749
  C      -1.421971     -2.522567     -0.716813
  P      -0.235354      0.017196     -0.799471
  C      -0.478234      1.735081      0.060854
  C      -1.822942      2.301674     -0.449460
  C      -0.458974      1.770632      1.596936
  C       0.603696      2.698216     -0.466714
  C       1.636507     -0.444080     -0.600597
  C       2.299866     -0.131534      0.749457
  C       2.385821      0.306422     -1.724290
  C       1.827081     -1.942659     -0.906084
  H       0.257369     -2.253675      1.475102
  H      -1.410839     -2.438608      2.037159
  H      -0.571388     -0.889386      2.253657
  H      -2.739109      0.058108      1.150478
  H      -3.137102     -0.395459     -0.529255
  H      -3.325312     -1.572223      0.788726
  H      -0.485461     -3.065319     -0.881824
  H      -1.822818     -2.233118     -1.700462
  H      -2.132478     -3.229729     -0.254246
  H      -2.694604      1.759305     -0.068943
  H      -1.867010      2.284464     -1.549360
  H      -1.922166      3.351131     -0.121270
  H       0.480945      1.386717      2.014072
  H      -1.285220      1.197491      2.038239
  H      -0.572134      2.814475      1.941105
  H       0.655010      2.691972     -1.566586
  H       1.603277      2.476660     -0.070406
  H       0.349922      3.724758     -0.151972
  H       3.350026     -0.474293      0.730796
  H       1.802123     -0.638671      1.586935
  H       2.317493      0.944479      0.966992
  H       2.410473      1.393241     -1.575061
  H       1.927367      0.109608     -2.705549
  H       3.432390     -0.043128     -1.759169
  H       1.440224     -2.594687     -0.113320
  H       2.906920     -2.150378     -0.998547
  H       1.354890     -2.228531     -1.858015
40
Coordinates from ORCA-job data/geom_opt/83681/83681 E -814.109117068361
  C      -0.689621     -1.705294      1.573235
  C      -1.251243     -1.278074      0.207788
  C      -2.680500     -0.740364      0.414954
  C      -1.401901     -2.519763     -0.699924
  P      -0.231128      0.023732     -0.802981
  C      -0.484448      1.739892      0.060206
  C      -1.827401      2.297821     -0.462624
  C      -0.489536      1.767421      1.596383
  C       0.592864      2.717377     -0.449706
  C       1.638841     -0.452026     -0.610081
  C       2.305273     -0.168079      0.744884
  C       2.399098      0.298137     -1.727544
  C       1.810151     -1.949340     -0.931437
  H       0.277419     -2.218861      1.487937
  H      -1.388981     -2.413485      2.053062
  H      -0.562590     -0.855096      2.255828
  H      -2.728286      0.076519      1.146557
  H      -3.127710     -0.392077     -0.528756
  H      -3.314156     -1.557629      0.799807
  H      -0.459892     -3.054580     -0.863746
  H      -1.808534     -2.241904     -1.684551
  H      -2.103889     -3.230237     -0.229582
  H      -2.698482      1.743023     -0.097287
  H      -1.857395      2.288853     -1.563090
  H      -1.941422      3.343538     -0.127301
  H       0.446648      1.389678      2.026716
  H      -1.317888      1.184379      2.021051
  H      -0.617749      2.808360      1.944082
  H       0.656487      2.718006     -1.548633
  H       1.589626      2.506311     -0.042959
  H       0.323204      3.739332     -0.132848
  H       3.350810     -0.524448      0.721226
  H       1.800710     -0.681846      1.574182
  H       2.337523      0.903549      0.979338
  H       2.437107      1.382250     -1.572131
  H       1.940278      0.112990     -2.710908
  H       3.441416     -0.064087     -1.763421
  H       1.410815     -2.604712     -0.147116
  H       2.887288     -2.171193     -1.022435
  H       1.337193     -2.218074     -1.888178
40
Coordinates from ORCA-job data/geom_opt/83681/83681 E -814.109153372122
  C      -0.696211     -1.713235      1.566571
  C      -1.255174     -1.279999      0.202393
  C      -2.684058     -0.741553      0.409287
  C      -1.409939     -2.518363     -0.708711
  P      -0.232075      0.022531     -0.808360
  C      -0.482265      1.737550      0.061529
  C      -1.828242      2.296460     -0.453234
  C      -0.474398      1.761072      1.597490
  C       0.592619      2.716318     -0.448865
  C       1.639946     -0.448301     -0.608869
  C       2.304499     -0.143802      0.742606
  C       2.400638      0.290072     -1.733609
  C       1.813666     -1.948851     -0.912696
  H       0.267985     -2.230799      1.480145
  H      -1.399125     -2.419671      2.043258
  H      -0.566140     -0.865527      2.251691
  H      -2.732659      0.073548      1.141722
  H      -3.129892     -0.391644     -0.534114
  H      -3.318255     -1.559593      0.791691
  H      -0.469830     -3.054091     -0.876315
  H      -1.817975     -2.236391     -1.691425
  H      -2.112701     -3.228473     -0.238945
  H      -2.696783      1.738837     -0.087104
  H      -1.862773      2.292720     -1.553478
  H      -1.941577      3.340337     -0.112308
  H       0.466524      1.383074      2.018496
  H      -1.297701      1.176433      2.027755
  H      -0.600206      2.800942      1.948459
  H       0.648855      2.723696     -1.547854
  H       1.591587      2.501223     -0.049910
  H       0.325675      3.736356     -0.123610
  H       3.352142     -0.493422      0.723040
  H       1.803659     -0.649932      1.577749
  H       2.329062      0.931355      0.963769
  H       2.433941      1.375333     -1.593384
  H       1.945627      0.089305     -2.715585
  H       3.444194     -0.069170     -1.761267
  H       1.417407     -2.595184     -0.120160
  H       2.891217     -2.168903     -1.002998
  H       1.338733     -2.230260     -1.864850
40
Coordinates from ORCA-job data/geom_opt/83681/83681 E -814.109160152833
  C      -0.692085     -1.716989      1.567216
  C      -1.254603     -1.280800      0.205312
  C      -2.683456     -0.743752      0.416295
  C      -1.409872     -2.517595     -0.707651
  P      -0.232870      0.021760     -0.805754
  C      -0.482450      1.739053      0.058962
  C      -1.826467      2.298563     -0.460100
  C      -0.477604      1.766366      1.595122
  C       0.594713      2.715190     -0.451788
  C       1.638392     -0.449072     -0.607432
  C       2.302253     -0.150273      0.745839
  C       2.399068      0.295187     -1.728082
  C       1.811671     -1.948380     -0.917900
  H       0.272151     -2.234251      1.477103
  H      -1.393542     -2.424883      2.044268
  H      -0.560472     -0.870840      2.254048
  H      -2.731236      0.070670      1.149756
  H      -3.131919     -0.393427     -0.525789
  H      -3.316246     -1.562606      0.799467
  H      -0.468811     -3.051189     -0.879227
  H      -1.821382     -2.234499     -1.688676
  H      -2.109789     -3.230255     -0.237309
  H      -2.696630      1.742008     -0.095960
  H      -1.857826      2.293725     -1.560501
  H      -1.940093      3.342996     -0.120668
  H       0.462383      1.388907      2.018809
  H      -1.302016      1.183300      2.025654
  H      -0.603285      2.807288      1.943534
  H       0.652642      2.720191     -1.550871
  H       1.592982      2.499552     -0.050822
  H       0.328939      3.736441     -0.129251
  H       3.350383     -0.498955      0.725284
  H       1.801497     -0.660650      1.578611
  H       2.326078      0.923887      0.972086
  H       2.430129      1.380377     -1.583535
  H       1.945591      0.097421     -2.711492
  H       3.443401     -0.061965     -1.756071
  H       1.414627     -2.598202     -0.128164
  H       2.889104     -2.168960     -1.008880
  H       1.336648     -2.225339     -1.871443
40
Coordinates from ORCA-job data/geom_opt/83681/83681 E -814.109160217527
  C      -0.697247     -1.713140      1.570999
  C      -1.255390     -1.280305      0.206046
  C      -2.684604     -0.742371      0.411760
  C      -1.408150     -2.518750     -0.705295
  P      -0.231984      0.021553     -0.803883
  C      -0.481413      1.738340      0.061267
  C      -1.825142      2.297015     -0.458902
  C      -0.479752      1.764359      1.597622
  C       0.596312      2.714743     -0.448168
  C       1.639596     -0.449602     -0.608979
  C       2.306884     -0.150024      0.742498
  C       2.396628      0.294931     -1.731663
  C       1.813686     -1.948697     -0.919615
  H       0.267065     -2.231254      1.485364
  H      -1.400604     -2.419424      2.047917
  H      -0.567315     -0.865161      2.256006
  H      -2.734251      0.074252      1.143115
  H      -3.130296     -0.394269     -0.532625
  H      -3.318817     -1.560034      0.795251
  H      -0.466481     -3.051880     -0.874989
  H      -1.818672     -2.237469     -1.687342
  H      -2.108281     -3.231299     -0.234947
  H      -2.695226      1.737983     -0.097774
  H      -1.854275      2.294572     -1.559427
  H      -1.941168      3.340577     -0.117332
  H       0.459799      1.387919      2.022832
  H      -1.304376      1.179622      2.026197
  H      -0.607526      2.804908      1.946809
  H       0.655089      2.720336     -1.547368
  H       1.594478      2.499005     -0.046648
  H       0.330278      3.735905     -0.125435
  H       3.355258     -0.498253      0.719230
  H       1.808620     -0.660454      1.576998
  H       2.331135      0.924120      0.968299
  H       2.425307      1.380770     -1.588554
  H       1.941866      0.094832     -2.714098
  H       3.441759     -0.059972     -1.761083
  H       1.418438     -2.599010     -0.129271
  H       2.891219     -2.168435     -1.012312
  H       1.337548     -2.225941     -1.872498
40
Coordinates from ORCA-job data/geom_opt/83681/83681 E -814.109162961080
  C      -0.694026     -1.713583      1.568890
  C      -1.254952     -1.279970      0.205486
  C      -2.683878     -0.742356      0.413999
  C      -1.409584     -2.518107     -0.705983
  P      -0.232490      0.021637     -0.806004
  C      -0.481649      1.738468      0.059821
  C      -1.825578      2.297497     -0.459654
  C      -0.478729      1.763539      1.596045
  C       0.595350      2.715803     -0.448938
  C       1.638951     -0.449522     -0.608731
  C       2.303712     -0.150024      0.743879
  C       2.398300      0.294259     -1.730457
  C       1.812996     -1.948727     -0.918535
  H       0.270059     -2.231563      1.480816
  H      -1.396297     -2.420151      2.046695
  H      -0.562690     -0.866096      2.254123
  H      -2.732590      0.073642      1.145831
  H      -3.131189     -0.393844     -0.529362
  H      -3.317288     -1.560370      0.797939
  H      -0.468326     -3.050878     -0.878130
  H      -1.822430     -2.236517     -1.686893
  H      -2.108482     -3.230941     -0.234378
  H      -2.695431      1.738021     -0.099193
  H      -1.854756      2.296240     -1.560116
  H      -1.941748      3.340638     -0.117057
  H       0.461347      1.387016      2.020090
  H      -1.302662      1.178476      2.025033
  H      -0.606240      2.803766      1.945882
  H       0.653492      2.722779     -1.548046
  H       1.593673      2.500143     -0.048202
  H       0.328943      3.736423     -0.124925
  H       3.352073     -0.497992      0.722388
  H       1.804112     -0.660620      1.577386
  H       2.327289      0.924059      0.969845
  H       2.426700      1.379937     -1.588435
  H       1.945673      0.093223     -2.713627
  H       3.443403     -0.060729     -1.757492
  H       1.416218     -2.598450     -0.128618
  H       2.890529     -2.168981     -1.009401
  H       1.338190     -2.226144     -1.871970
40
Coordinates from ORCA-job data/geom_opt/83681/83681 E -814.109163299790
  C      -0.693825     -1.714441      1.568711
  C      -1.255107     -1.280026      0.205676
  C      -2.684049     -0.742687      0.414747
  C      -1.409917     -2.517733     -0.706294
  P      -0.232574      0.021553     -0.805911
  C      -0.481488      1.738735      0.059610
  C      -1.825294      2.297704     -0.460275
  C      -0.478681      1.764021      1.595875
  C       0.595537      2.716095     -0.448856
  C       1.638872     -0.449608     -0.608539
  C       2.303662     -0.149850      0.744050
  C       2.398137      0.294115     -1.730315
  C       1.812978     -1.948837     -0.918197
  H       0.269983     -2.232810      1.479987
  H      -1.396204     -2.420959      2.046469
  H      -0.561857     -0.867321      2.254294
  H      -2.732900      0.073154      1.146732
  H      -3.131671     -0.394143     -0.528449
  H      -3.317175     -1.560962      0.798632
  H      -0.468520     -3.049909     -0.879684
  H      -1.823804     -2.235761     -1.686656
  H      -2.108092     -3.231147     -0.234470
  H      -2.695213      1.737642     -0.100891
  H      -1.853668      2.297211     -1.560764
  H      -1.942004      3.340591     -0.117060
  H       0.461566      1.387797      2.019939
  H      -1.302404      1.178845      2.025039
  H      -0.606350      2.804300      1.945565
  H       0.653700      2.723293     -1.547959
  H       1.593894      2.500493     -0.048125
  H       0.328944      3.736645     -0.124728
  H       3.352156     -0.497488      0.722471
  H       1.804345     -0.660555      1.577629
  H       2.326969      0.924291      0.969995
  H       2.425526      1.379892     -1.589168
  H       1.946149      0.091944     -2.713548
  H       3.443526     -0.060131     -1.756659
  H       1.416306     -2.598516     -0.128172
  H       2.890522     -2.169062     -1.009153
  H       1.338021     -2.226376     -1.871546
