35
Coordinates from ORCA-job data/geom_opt/280677/280677 E -977.583006479510
  C      -1.882071     -3.461617      0.572196
  C      -1.596128     -2.360058      1.374976
  C      -1.010959     -1.220137      0.817890
  C      -0.705455     -1.166350     -0.549853
  C      -0.999797     -2.283823     -1.345200
  C      -1.584377     -3.424015     -0.787804
  P       0.068448      0.290059     -1.334932
  C       1.616476      0.466242     -0.329726
  C       2.583476     -0.702130     -0.550145
  C       3.924560     -0.497096      0.156202
  N       3.772381     -0.423969      1.604500
  C      -1.001949      1.646886     -0.733020
  C      -0.488473      2.825116     -0.172328
  C      -1.338569      3.849900      0.257810
  C      -2.717519      3.719599      0.122507
  C      -3.247432      2.567916     -0.449804
  C      -2.396708      1.545291     -0.879369
  H      -2.338584     -4.347376      1.005705
  H      -1.830374     -2.383620      2.435974
  H      -0.803352     -0.371073      1.465625
  H      -0.776699     -2.276773     -2.410153
  H      -1.807528     -4.281049     -1.417687
  H       1.372287      0.564138      0.733195
  H       2.116886      1.391348     -0.637618
  H       2.134814     -1.643182     -0.207448
  H       2.779432     -0.825508     -1.623324
  H       4.400900      0.421599     -0.202765
  H       4.592415     -1.329701     -0.090985
  H       4.693393     -0.370877      2.038647
  H       3.347978     -1.286379      1.946659
  H       0.581275      2.976169     -0.061498
  H      -0.918773      4.752419      0.694504
  H      -3.376686      4.516469      0.455651
  H      -4.322512      2.461599     -0.567155
  H      -2.840775      0.659983     -1.331225
35
Coordinates from ORCA-job data/geom_opt/280677/280677 E -977.585877031053
  C      -1.819153     -3.461664      0.584791
  C      -1.570274     -2.327961      1.364410
  C      -1.014131     -1.186358      0.782143
  C      -0.696770     -1.159761     -0.586338
  C      -0.953110     -2.303938     -1.357554
  C      -1.509881     -3.448822     -0.776883
  P       0.058795      0.302821     -1.402844
  C       1.610316      0.484937     -0.396126
  C       2.550798     -0.710040     -0.577606
  C       3.873613     -0.537161      0.167437
  N       3.656928     -0.399343      1.610991
  C      -0.997707      1.644198     -0.729958
  C      -0.467597      2.810416     -0.153224
  C      -1.306344      3.839846      0.288019
  C      -2.691485      3.720344      0.163583
  C      -3.234251      2.569554     -0.414413
  C      -2.395120      1.545661     -0.858975
  H      -2.257044     -4.354360      1.039394
  H      -1.813873     -2.330596      2.430183
  H      -0.836411     -0.306382      1.406181
  H      -0.716766     -2.307448     -2.425047
  H      -1.704107     -4.331566     -1.391692
  H       1.371657      0.622261      0.670234
  H       2.127098      1.398009     -0.734961
  H       2.059993     -1.635163     -0.227520
  H       2.768310     -0.860183     -1.649089
  H       4.380751      0.372313     -0.198199
  H       4.536739     -1.395066     -0.073604
  H       4.553618     -0.332437      2.092404
  H       3.205101     -1.242214      1.970069
  H       0.610821      2.939929     -0.039319
  H      -0.872344      4.736928      0.737258
  H      -3.346897      4.521495      0.515340
  H      -4.317252      2.466044     -0.519942
  H      -2.844019      0.655707     -1.309141
35
Coordinates from ORCA-job data/geom_opt/280677/280677 E -977.586538200859
  C      -1.763119     -3.460822      0.616627
  C      -1.571717     -2.294022      1.367744
  C      -1.045033     -1.151178      0.763397
  C      -0.699143     -1.154231     -0.599318
  C      -0.897293     -2.328132     -1.341526
  C      -1.425155     -3.476221     -0.738991
  P       0.043011      0.313574     -1.442537
  C       1.605442      0.493289     -0.440951
  C       2.542441     -0.703601     -0.622873
  C       3.843645     -0.567192      0.168127
  N       3.570966     -0.437725      1.601454
  C      -1.003409      1.651729     -0.727796
  C      -0.463218      2.803785     -0.131104
  C      -1.294803      3.833904      0.321672
  C      -2.681676      3.730853      0.188536
  C      -3.232142      2.589226     -0.406177
  C      -2.401452      1.565714     -0.863345
  H      -2.178927     -4.355620      1.088999
  H      -1.837569     -2.274508      2.428803
  H      -0.910730     -0.243055      1.358173
  H      -0.635553     -2.345183     -2.403771
  H      -1.574929     -4.383057     -1.332113
  H       1.377809      0.633454      0.627609
  H       2.118321      1.408760     -0.784339
  H       2.028335     -1.629673     -0.305667
  H       2.785608     -0.837405     -1.691938
  H       4.369471      0.347440     -0.162275
  H       4.508114     -1.423195     -0.088650
  H       4.444017     -0.360258      2.123195
  H       3.113427     -1.286888      1.939245
  H       0.616508      2.911362     -0.006396
  H      -0.852928      4.719794      0.787165
  H      -3.331568      4.533992      0.547574
  H      -4.316563      2.495033     -0.515301
  H      -2.850188      0.680058     -1.323249
35
Coordinates from ORCA-job data/geom_opt/280677/280677 E -977.586731739175
  C      -1.715643     -3.458566      0.655897
  C      -1.554585     -2.274467      1.387543
  C      -1.051947     -1.130486      0.766464
  C      -0.700878     -1.149808     -0.594948
  C      -0.869401     -2.339668     -1.318051
  C      -1.372245     -3.489494     -0.697747
  P       0.028212      0.319911     -1.459147
  C       1.602903      0.500314     -0.469793
  C       2.544228     -0.690430     -0.664117
  C       3.825149     -0.584355      0.166053
  N       3.514182     -0.499886      1.592212
  C      -1.013913      1.662134     -0.733237
  C      -0.472052      2.794008     -0.101550
  C      -1.301379      3.823944      0.355838
  C      -2.686167      3.740725      0.193226
  C      -3.237531      2.617620     -0.435493
  C      -2.410068      1.594632     -0.897978
  H      -2.112345     -4.354108      1.142144
  H      -1.824559     -2.243874      2.446957
  H      -0.937850     -0.208008      1.342189
  H      -0.603072     -2.363504     -2.378858
  H      -1.499095     -4.409170     -1.275683
  H       1.385666      0.632386      0.601421
  H       2.105260      1.421958     -0.812563
  H       2.019442     -1.623703     -0.388028
  H       2.812185     -0.795072     -1.730123
  H       4.361278      0.339633     -0.118980
  H       4.494533     -1.429502     -0.110309
  H       4.369433     -0.418668      2.142072
  H       3.062216     -1.364731      1.896385
  H       0.605847      2.881151      0.047295
  H      -0.858566      4.694356      0.848256
  H      -3.333519      4.544321      0.554319
  H      -4.320402      2.538628     -0.567237
  H      -2.855317      0.721776     -1.384427
35
Coordinates from ORCA-job data/geom_opt/280677/280677 E -977.586852180806
  C      -1.668844     -3.445236      0.705160
  C      -1.539047     -2.243854      1.413846
  C      -1.057588     -1.101371      0.774034
  C      -0.697140     -1.141306     -0.584338
  C      -0.836630     -2.347591     -1.285717
  C      -1.317424     -3.495581     -0.645359
  P       0.015855      0.326429     -1.472725
  C       1.604683      0.510516     -0.502668
  C       2.552230     -0.671223     -0.715184
  C       3.805642     -0.601702      0.160976
  N       3.450432     -0.585834      1.576390
  C      -1.022349      1.673263     -0.742437
  C      -0.484975      2.781144     -0.067379
  C      -1.316332      3.806792      0.396481
  C      -2.696793      3.741696      0.198262
  C      -3.243443      2.641368     -0.472759
  C      -2.414624      1.623498     -0.943092
  H      -2.048334     -4.339036      1.207039
  H      -1.816787     -2.199342      2.470355
  H      -0.965260     -0.164148      1.328619
  H      -0.564392     -2.382608     -2.344398
  H      -1.420982     -4.428755     -1.205239
  H       1.399262      0.629301      0.572166
  H       2.092768      1.439968     -0.844189
  H       2.019459     -1.614052     -0.493128
  H       2.852666     -0.735410     -1.775082
  H       4.351149      0.333041     -0.063227
  H       4.483439     -1.431738     -0.135685
  H       4.283882     -0.504614      2.158449
  H       3.008164     -1.470558      1.833235
  H       0.589366      2.850215      0.109514
  H      -0.877817      4.659422      0.921979
  H      -3.344890      4.542111      0.563520
  H      -4.323156      2.577575     -0.632335
  H      -2.852192      0.767618     -1.465081
35
Coordinates from ORCA-job data/geom_opt/280677/280677 E -977.586908276546
  C      -1.642065     -3.434044      0.744203
  C      -1.515708     -2.225847      1.440899
  C      -1.044804     -1.086062      0.788151
  C      -0.692352     -1.137019     -0.571733
  C      -0.828773     -2.350408     -1.261723
  C      -1.298358     -3.495127     -0.607732
  P       0.007367      0.325805     -1.478747
  C       1.606031      0.518015     -0.526914
  C       2.558484     -0.657799     -0.749410
  C       3.794103     -0.606549      0.153113
  N       3.412628     -0.632798      1.560535
  C      -1.027609      1.675589     -0.749991
  C      -0.498429      2.755236     -0.025406
  C      -1.332062      3.777818      0.441783
  C      -2.705680      3.736270      0.197656
  C      -3.244254      2.664451     -0.523667
  C      -2.412951      1.650495     -0.997993
  H      -2.012890     -4.325265      1.256783
  H      -1.788015     -2.173907      2.498364
  H      -0.953788     -0.143039      1.332669
  H      -0.563732     -2.392821     -2.321830
  H      -1.399661     -4.434097     -1.158036
  H       1.409239      0.629743      0.550420
  H       2.083314      1.451658     -0.871570
  H       2.024746     -1.606673     -0.558614
  H       2.879070     -0.698177     -1.804248
  H       4.342225      0.334168     -0.034905
  H       4.479274     -1.427507     -0.150686
  H       4.232087     -0.548271      2.161314
  H       2.979320     -1.529044      1.789938
  H       0.570328      2.804125      0.187546
  H      -0.900758      4.608984      1.005960
  H      -3.355392      4.533981      0.565668
  H      -4.318758      2.620812     -0.719891
  H      -2.842174      0.817302     -1.561902
35
Coordinates from ORCA-job data/geom_opt/280677/280677 E -977.586936791050
  C      -1.642878     -3.422466      0.766669
  C      -1.524014     -2.208603      1.454229
  C      -1.051620     -1.072727      0.795133
  C      -0.690257     -1.133967     -0.561739
  C      -0.819450     -2.353403     -1.242996
  C      -1.290333     -3.493839     -0.582648
  P       0.005758      0.322713     -1.477843
  C       1.608657      0.519369     -0.537065
  C       2.566548     -0.650187     -0.770995
  C       3.795789     -0.604501      0.140307
  N       3.405361     -0.656014      1.545029
  C      -1.026032      1.674924     -0.753363
  C      -0.505601      2.736837      0.002939
  C      -1.342797      3.755726      0.472405
  C      -2.711296      3.726429      0.199712
  C      -3.241543      2.672406     -0.553290
  C      -2.405967      1.663299     -1.030693
  H      -2.014992     -4.310425      1.284222
  H      -1.803905     -2.148781      2.509388
  H      -0.967043     -0.125279      1.333191
  H      -0.548023     -2.404997     -2.301106
  H      -1.385813     -4.437701     -1.125773
  H       1.416658      0.620225      0.542381
  H       2.077823      1.457971     -0.879101
  H       2.037717     -1.604782     -0.595965
  H       2.894104     -0.674672     -1.824149
  H       4.339634      0.341940     -0.029346
  H       4.487848     -1.418281     -0.167994
  H       4.219227     -0.567140      2.152461
  H       2.980649     -1.559522      1.760412
  H       0.558796      2.775954      0.238764
  H      -0.918768      4.573847      1.060766
  H      -3.364068      4.520773      0.570086
  H      -4.312024      2.639801     -0.772535
  H      -2.828144      0.845073     -1.621491
35
Coordinates from ORCA-job data/geom_opt/280677/280677 E -977.586945631769
  C      -1.644397     -3.419085      0.776622
  C      -1.527010     -2.203151      1.460739
  C      -1.053598     -1.069068      0.798871
  C      -0.690127     -1.133765     -0.557191
  C      -0.817455     -2.355647     -1.234809
  C      -1.288928     -3.494339     -0.571924
  P       0.003417      0.319632     -1.477654
  C       1.608830      0.518995     -0.544294
  C       2.564798     -0.652702     -0.776884
  C       3.797159     -0.602722      0.129935
  N       3.410792     -0.647935      1.536730
  C      -1.025350      1.672764     -0.753780
  C      -0.511137      2.718987      0.028210
  C      -1.349328      3.736519      0.499061
  C      -2.713069      3.721128      0.201899
  C      -3.237321      2.683319     -0.577602
  C      -2.400082      1.676141     -1.056305
  H      -2.017486     -4.305670      1.296079
  H      -1.808704     -2.140052      2.515337
  H      -0.970451     -0.120572      1.335517
  H      -0.544516     -2.411629     -2.292373
  H      -1.383051     -4.439944     -1.112425
  H       1.420593      0.621895      0.535732
  H       2.077694      1.455965     -0.891236
  H       2.036779     -1.606674     -0.595365
  H       2.888699     -0.681936     -1.831144
  H       4.339272      0.343759     -0.045142
  H       4.489264     -1.417927     -0.175328
  H       4.226311     -0.553319      2.140956
  H       2.988112     -1.550847      1.758093
  H       0.549167      2.747542      0.283750
  H      -0.930284      4.542473      1.107567
  H      -3.366907      4.514155      0.573651
  H      -4.303936      2.662301     -0.816645
  H      -2.817748      0.871408     -1.668648
35
Coordinates from ORCA-job data/geom_opt/280677/280677 E -977.586948374748
  C      -1.652595     -3.416962      0.784853
  C      -1.539866     -2.198667      1.465745
  C      -1.063947     -1.066267      0.802699
  C      -0.693150     -1.134448     -0.551190
  C      -0.815898     -2.358728     -1.225488
  C      -1.289723     -3.495901     -0.561659
  P       0.003314      0.316242     -1.473072
  C       1.607646      0.515485     -0.538822
  C       2.570110     -0.648567     -0.783289
  C       3.805037     -0.597667      0.119955
  N       3.422614     -0.655140      1.527829
  C      -1.024495      1.671558     -0.752699
  C      -0.514922      2.711052      0.041208
  C      -1.354302      3.728749      0.509627
  C      -2.715060      3.720105      0.198269
  C      -3.234822      2.689035     -0.593372
  C      -2.395973      1.682126     -1.069758
  H      -2.027870     -4.302352      1.304970
  H      -1.827071     -2.132256      2.518730
  H      -0.984680     -0.116374      1.337603
  H      -0.537498     -2.418368     -2.281526
  H      -1.380064     -4.443300     -1.099841
  H       1.420208      0.605916      0.542489
  H       2.071143      1.458592     -0.876552
  H       2.048445     -1.607130     -0.607129
  H       2.890728     -0.667880     -1.838903
  H       4.339523      0.354379     -0.049185
  H       4.502345     -1.405485     -0.193554
  H       4.239190     -0.558956      2.130385
  H       3.006810     -1.562608      1.743658
  H       0.542751      2.734505      0.308283
  H      -0.938781      4.529553      1.127415
  H      -3.369968      4.513212      0.568260
  H      -4.298973      2.673422     -0.843913
  H      -2.810206      0.883124     -1.692028
35
Coordinates from ORCA-job data/geom_opt/280677/280677 E -977.586950415857
  C      -1.651745     -3.417143      0.784374
  C      -1.544368     -2.197467      1.463708
  C      -1.069160     -1.064929      0.800522
  C      -0.693624     -1.134036     -0.552014
  C      -0.811291     -2.359647     -1.224790
  C      -1.284359     -3.497053     -0.560835
  P       0.002803      0.316997     -1.473978
  C       1.607633      0.515061     -0.540252
  C       2.567068     -0.652045     -0.781735
  C       3.804828     -0.599937      0.117583
  N       3.426414     -0.649368      1.526806
  C      -1.024377      1.672605     -0.752450
  C      -0.515425      2.709910      0.044650
  C      -1.354829      3.727135      0.513993
  C      -2.715148      3.720204      0.200673
  C      -3.234410      2.691018     -0.593752
  C      -2.395506      1.684669     -1.071124
  H      -2.026459     -4.302689      1.304509
  H      -1.835142     -2.130014      2.515586
  H      -0.994221     -0.114115      1.334364
  H      -0.529504     -2.420144     -2.279888
  H      -1.370528     -4.445413     -1.097946
  H       1.421327      0.609182      0.540887
  H       2.073406      1.456114     -0.880637
  H       2.043263     -1.608351     -0.599512
  H       2.884428     -0.677170     -1.838198
  H       4.340813      0.350205     -0.057636
  H       4.499447     -1.410383     -0.194678
  H       4.245232     -0.553280      2.126385
  H       3.008798     -1.554815      1.747824
  H       0.541776      2.731908      0.313564
  H      -0.939659      4.526275      1.134114
  H      -3.369969      4.512998      0.571307
  H      -4.298173      2.676530     -0.845821
  H      -2.809337      0.887189     -1.695600
35
Coordinates from ORCA-job data/geom_opt/280677/280677 E -977.586950848998
  C      -1.651262     -3.418126      0.783453
  C      -1.541852     -2.199221      1.463799
  C      -1.067027     -1.066342      0.801005
  C      -0.693859     -1.134299     -0.552237
  C      -0.813623     -2.359121     -1.226047
  C      -1.286301     -3.496865     -0.562441
  P       0.002841      0.317164     -1.473991
  C       1.607330      0.514752     -0.539217
  C       2.566324     -0.652887     -0.779792
  C       3.805034     -0.600062      0.118136
  N       3.428235     -0.646842      1.527727
  C      -1.024670      1.672944     -0.752506
  C      -0.515829      2.710309      0.044496
  C      -1.355306      3.727622      0.513472
  C      -2.715523      3.720831      0.199862
  C      -3.234616      2.691604     -0.594554
  C      -2.395708      1.685127     -1.071585
  H      -2.025607     -4.303947      1.303294
  H      -1.830681     -2.132570      2.516226
  H      -0.990343     -0.116148      1.335632
  H      -0.533941     -2.418541     -2.281751
  H      -1.374106     -4.444537     -1.100431
  H       1.420927      0.609893      0.541813
  H       2.073711      1.455474     -0.879738
  H       2.041999     -1.608516     -0.595608
  H       2.882572     -0.679772     -1.836526
  H       4.341577      0.349323     -0.059408
  H       4.498631     -1.411346     -0.193891
  H       4.248038     -0.551679      2.126141
  H       3.009771     -1.551546      1.750324
  H       0.541327      2.732122      0.313561
  H      -0.940183      4.526779      1.133552
  H      -3.370291      4.513765      0.570136
  H      -4.298283      2.677113     -0.846873
  H      -2.809306      0.887543     -1.696032
