33
Coordinates from ORCA-job data/geom_opt/621893/621893 E -1051.307734670107
  C           3.82979775962187     -1.60292973082572     -0.93219182737403
  C           2.85335819994046     -2.52161310177477     -0.53317445476619
  C           1.72403733351911     -2.08905383516490      0.16338686456731
  C           1.54534177717842     -0.72828385747572      0.46530505416959
  C           2.53379325470698      0.18530362834552      0.06716915796857
  C           3.66677974313550     -0.24949353061139     -0.62681495463375
  P           0.11743626863765     -0.19958755337450      1.50641745012827
  C          -0.18925593994913      1.51251497351971      0.87539366525829
  C          -0.35303672193926      1.80178361229792     -0.49104010400424
  C          -0.58127284435849      3.11367737843120     -0.90781583308382
  C          -0.64589880274938      4.15133395873772      0.03064179847059
  C          -0.48311377943143      3.87259423070964      1.38929347527077
  C          -0.25688269782456      2.55691849466476      1.80915874984942
  C          -1.27487401843781     -1.11160900376991      0.65705890550785
  C          -2.30937087732669     -1.62338658706090      1.45486967453400
  C          -3.37378316107448     -2.28755079262672      0.84017426376772
  C          -3.36361845502057     -2.42534408676748     -0.54782451213648
  C          -2.28460972398205     -1.88642839625752     -1.25891402724300
  N          -1.27063660375214     -1.24779558525725     -0.67631454418416
  H           4.71316614047880     -1.94175021247408     -1.47942598816040
  H           2.97063757229546     -3.58278502259126     -0.76879124672248
  H           0.96869320068233     -2.81869642217853      0.46625257007096
  H           2.41486087520067      1.24774049484206      0.29105368961775
  H           4.42360068139614      0.47712183131549     -0.93441116679083
  H          -0.30756253403995      0.98636323420703     -1.21578263116112
  H          -0.70927468189027      3.33093925086963     -1.97171390460696
  H          -0.82280473205015      5.17818788773229     -0.30025403263215
  H          -0.53150052380503      4.67919111398107      2.12553979893525
  H          -0.12875605446986      2.33567441042976      2.87242161054431
  H          -2.26905716516446     -1.50014815630190      2.53955341441740
  H          -4.19397842771591     -2.69550829746748      1.43699791126482
  H          -4.16999247221181     -2.94048326264397     -1.07483178303134
  H          -2.24222158959996     -1.97689606545978     -2.35097904381191
