39
Coordinates from ORCA-job data/geom_opt_PO_BP86/316378/316378 E -963.498450248901
  C          -2.55299456392806     -0.99378907231636     -1.28348107989955
  C          -1.18642390625532     -1.33641860478114     -0.66067530137319
  C          -0.45928448670507     -2.36479275678740     -1.55472833685292
  C          -1.35347150875207     -1.91209692681156      0.75403362833208
  P          -0.08814354440488      0.20275678350903     -0.77469566673147
  O           0.22791194015039      0.51112799699883     -2.23737455963455
  C           1.45831446407596     -0.22489495238413      0.13178976035461
  C           2.61341002067492     -0.31140857260425     -0.67222060825853
  C           3.85471062083633     -0.62623667436067     -0.09724093420804
  C           3.95376284999771     -0.85039537937394      1.28610474614442
  C           2.80766461601870     -0.75738510488712      2.09467007189690
  C           1.56394798607110     -0.44758801453718      1.52148896592138
  C          -0.80609123696222      1.74980521226155      0.05725352369951
  C          -1.51879222230055      1.50450170176824      1.39538418260383
  C          -1.77625337117284      2.37965234189775     -0.96427553274086
  C           0.39669045619955      2.69868570736175      0.24975902364103
  H          -2.42682650617854     -0.49605390141094     -2.26542986634433
  H          -3.15709115485324     -0.33503497369752     -0.62784044574084
  H          -3.13362939833212     -1.92743354943524     -1.44197674714502
  H          -0.30157112475171     -1.95767222868068     -2.57165827614883
  H           0.53098707883230     -2.63707601011508     -1.13604952377515
  H          -1.06904365044650     -3.29061519077511     -1.62296050177162
  H          -1.99498716694935     -2.81828289245457      0.70293497295302
  H          -1.83980309443968     -1.20501071566527      1.45290634840705
  H          -0.38275011335808     -2.22245278755797      1.18715304888302
  H           2.50406618338101     -0.11746125205595     -1.75099830077640
  H           4.75126207598226     -0.69349077269797     -0.73279186162599
  H           4.92723200037432     -1.09534679127933      1.73821313390454
  H           2.88231222401117     -0.92680501984722      3.17991121903940
  H           0.67870138229364     -0.37349937933328      2.16917773926899
  H          -2.41923728870706      0.87043280893593      1.27611476100197
  H          -1.85465138162740      2.47704406929589      1.81555827626133
  H          -0.85810250000400      1.03566858311371      2.15112736194082
  H          -2.70501336789991      1.78827948093889     -1.07802117695622
  H          -1.29389119986615      2.45624247223755     -1.95762627825341
  H          -2.06216017492721      3.39639487140729     -0.62063874338553
  H           0.96527092312185      2.80986427008356     -0.69531429454143
  H           0.02943671274719      3.70253882778439      0.55158057769422
  H           1.09453042805353      2.33824639625553      1.03083569421576
