! RI BP86 def2-SVP D3BJ TIGHTSCF Opt
%pal
nprocs 6
end

* xyz 0 1
C     -3.296128   -2.182510   -0.321687
C     -2.419882   -1.204959   -0.802917
C     -1.024629   -1.346316   -0.679951
C     -0.537286   -2.532854   -0.109952
C     -1.414955   -3.508041    0.370406
C     -2.791989   -3.334886    0.273322
Cl    -0.785974   -4.942877    1.084179
P      0.078191   -0.062011   -1.358299
C      1.637659   -0.239119   -0.428618
C      2.826956   -0.394813   -1.159689
C      4.051699   -0.530441   -0.503617
C      4.116604   -0.514284    0.886343
C      2.946837   -0.360681    1.626059
C      1.718202   -0.223242    0.973017
Cl     5.494913   -0.719633   -1.422286
C     -0.551685    1.508963   -0.667627
C     -1.249316    1.616285    0.544604
C     -1.692310    2.858985    1.002619
C     -1.449937    4.015357    0.267389
C     -0.756454    3.928998   -0.936525
C     -0.311277    2.686744   -1.398202
Cl    -2.545958    2.960765    2.494053
H     -4.370224   -2.044128   -0.418818
H     -2.846216   -0.323241   -1.280410
H      0.531490   -2.719665   -0.039849
H     -3.472789   -4.095413    0.645730
H      2.805824   -0.410978   -2.247497
H      5.070082   -0.620329    1.396548
H      2.987774   -0.347763    2.712645
H      0.824560   -0.112362    1.582145
H     -1.452212    0.736794    1.149841
H     -1.794531    4.981315    0.626236
H     -0.558741    4.826644   -1.517308
H      0.231700    2.649698   -2.341885
*