34
Coordinates from ORCA-job data/geom_opt/70874/70874 E -2413.510818571652
  C      -0.698366     -2.421055     -1.635688
  C      -1.190981     -3.686835     -1.301863
  C      -1.868795     -3.868670     -0.101375
  C      -2.056891     -2.796557      0.765082
  C      -1.562564     -1.530736      0.428945
  C      -0.872772     -1.320769     -0.775245
  P      -0.194841      0.286292     -1.302955
  C       1.555433      0.216422     -0.800587
  C       2.423215      1.202669     -1.306233
  C       3.780320      1.215771     -0.967999
  C       4.289289      0.238459     -0.119777
  C       3.452953     -0.749039      0.391047
  C       2.094951     -0.759803      0.051398
  Cl      5.956737      0.251256      0.300201
  C      -0.940584      1.483326     -0.148966
  C      -2.231063      1.962272     -0.443382
  C      -2.870003      2.883537      0.392880
  C      -2.223880      3.341317      1.535960
  C      -0.946901      2.885540      1.847643
  C      -0.309643      1.963166      1.009326
  Cl     -3.005903      4.472782      2.568021
  Cl     -2.474944     -5.423284      0.314181
  H      -0.171022     -2.303898     -2.581626
  H      -1.041600     -4.520023     -1.983350
  H      -2.586858     -2.933935      1.704111
  H      -1.726683     -0.720448      1.134815
  H       2.048395      1.978710     -1.972481
  H       4.428567      1.989251     -1.371047
  H       3.846682     -1.515420      1.053730
  H       1.474457     -1.545596      0.474800
  H      -2.757680      1.618812     -1.332948
  H      -3.867098      3.236400      0.143419
  H      -0.437766      3.241324      2.739669
  H       0.685839      1.628762      1.290296
34
Coordinates from ORCA-job data/geom_opt/70874/70874 E -2413.513658347832
  C      -0.683354     -2.421025     -1.644766
  C      -1.155524     -3.682329     -1.277372
  C      -1.838036     -3.838719     -0.067821
  C      -2.041925     -2.740506      0.770701
  C      -1.552264     -1.484375      0.400680
  C      -0.864629     -1.303620     -0.809942
  P      -0.207185      0.304027     -1.385441
  C       1.534813      0.229863     -0.830491
  C       2.415261      1.218474     -1.305707
  C       3.759375      1.231496     -0.928851
  C       4.247991      0.235183     -0.079233
  C       3.395163     -0.764513      0.394092
  C       2.047321     -0.760265      0.022768
  Cl      5.921075      0.236555      0.383625
  C      -0.943809      1.474003     -0.186920
  C      -2.242886      1.946168     -0.447409
  C      -2.873870      2.841651      0.417958
  C      -2.199130      3.294835      1.554895
  C      -0.903210      2.850254      1.826389
  C      -0.285622      1.941853      0.961538
  Cl     -2.971407      4.418971      2.628795
  Cl     -2.439939     -5.401151      0.390295
  H      -0.163531     -2.313993     -2.600877
  H      -1.001026     -4.537101     -1.938105
  H      -2.576276     -2.860587      1.714816
  H      -1.720497     -0.645214      1.079027
  H       2.052888      1.997872     -1.981742
  H       4.424815      2.009924     -1.306113
  H       3.775375     -1.544295      1.056452
  H       1.402519     -1.550174      0.413930
  H      -2.780047      1.612612     -1.339588
  H      -3.883761      3.192862      0.199226
  H      -0.374149      3.204611      2.712863
  H       0.725483      1.606652      1.202333
34
Coordinates from ORCA-job data/geom_opt/70874/70874 E -2413.514327718633
  C      -0.713423     -2.415993     -1.670426
  C      -1.169245     -3.676417     -1.286302
  C      -1.812550     -3.827857     -0.052193
  C      -1.992162     -2.727388      0.791527
  C      -1.517141     -1.473500      0.399885
  C      -0.868198     -1.297684     -0.832522
  P      -0.214406      0.314743     -1.434052
  C       1.530441      0.234026     -0.852320
  C       2.424293      1.203513     -1.339992
  C       3.760239      1.221752     -0.941352
  C       4.226433      0.243408     -0.055217
  C       3.360154     -0.740478      0.431256
  C       2.020774     -0.737464      0.034529
  Cl      5.900597      0.248980      0.440130
  C      -0.946291      1.478018     -0.209093
  C      -2.236093      1.972534     -0.471018
  C      -2.866841      2.850763      0.409247
  C      -2.195207      3.265254      1.565479
  C      -0.905818      2.799051      1.839837
  C      -0.292215      1.907860      0.956295
  Cl     -2.970259      4.375760      2.667439
  Cl     -2.399052     -5.399169      0.432793
  H      -0.224655     -2.304184     -2.643248
  H      -1.037022     -4.537563     -1.944681
  H      -2.495954     -2.851475      1.752466
  H      -1.655953     -0.626529      1.075296
  H       2.072035      1.963797     -2.043983
  H       4.441885      1.984485     -1.323637
  H       3.729664     -1.501882      1.121458
  H       1.355352     -1.506619      0.432800
  H      -2.762788      1.665438     -1.379875
  H      -3.871228      3.222529      0.195904
  H      -0.386345      3.126938      2.742753
  H       0.710978      1.545356      1.190820
34
Coordinates from ORCA-job data/geom_opt/70874/70874 E -2413.514448824750
  C      -0.709879     -2.419511     -1.665759
  C      -1.163200     -3.680018     -1.279198
  C      -1.814236     -3.825103     -0.049038
  C      -2.006807     -2.722567      0.788188
  C      -1.535447     -1.468745      0.392698
  C      -0.876553     -1.297909     -0.834972
  P      -0.214410      0.316055     -1.441542
  C       1.535624      0.227525     -0.857420
  C       2.425342      1.208815     -1.328084
  C       3.759802      1.229110     -0.924886
  C       4.225285      0.240525     -0.050723
  C       3.364829     -0.755767      0.418956
  C       2.027406     -0.754833      0.016362
  Cl      5.899287      0.248454      0.451833
  C      -0.942681      1.486215     -0.211870
  C      -2.240708      1.964021     -0.462770
  C      -2.872972      2.838868      0.419597
  C      -2.192588      3.264160      1.566075
  C      -0.895274      2.816176      1.830368
  C      -0.280376      1.929257      0.943735
  Cl     -2.970106      4.371404      2.672644
  Cl     -2.397754     -5.398233      0.440606
  H      -0.213255     -2.307551     -2.634273
  H      -1.024116     -4.546644     -1.928088
  H      -2.519000     -2.847857      1.743994
  H      -1.683045     -0.615474      1.057550
  H       2.068384      1.975746     -2.022030
  H       4.441961      1.998669     -1.290807
  H       3.740261     -1.523524      1.098102
  H       1.361862     -1.532456      0.396315
  H      -2.770614      1.644507     -1.365145
  H      -3.883370      3.200162      0.219601
  H      -0.373593      3.157625      2.726397
  H       0.729939      1.578896      1.163589
34
Coordinates from ORCA-job data/geom_opt/70874/70874 E -2413.514476078369
  C      -0.727976     -2.415402     -1.676285
  C      -1.180837     -3.677272     -1.292495
  C      -1.810396     -3.827731     -0.052716
  C      -1.984016     -2.732779      0.797493
  C      -1.513591     -1.477704      0.404631
  C      -0.875731     -1.300501     -0.833007
  P      -0.213840      0.315842     -1.439751
  C       1.537979      0.228580     -0.854381
  C       2.430274      1.198052     -1.344320
  C       3.765675      1.220296     -0.943323
  C       4.226216      0.245943     -0.051929
  C       3.364006     -0.738420      0.437438
  C       2.025918     -0.739700      0.036752
  Cl      5.900020      0.257052      0.449419
  C      -0.944437      1.486410     -0.208761
  C      -2.234010      1.979097     -0.474137
  C      -2.868969      2.854568      0.406113
  C      -2.198618      3.262735      1.563765
  C      -0.910282      2.800261      1.843246
  C      -0.292554      1.913186      0.958580
  Cl     -2.979511      4.368697      2.668439
  Cl     -2.391655     -5.401918      0.434385
  H      -0.247262     -2.295980     -2.651658
  H      -1.058573     -4.540617     -1.948495
  H      -2.480408     -2.866502      1.760095
  H      -1.645027     -0.627782      1.076883
  H       2.073922      1.952832     -2.051434
  H       4.452549      1.978762     -1.322266
  H       3.739741     -1.493719      1.129729
  H       1.356133     -1.506923      0.429703
  H      -2.753690      1.670601     -1.385980
  H      -3.872346      3.229515      0.198033
  H      -0.399669      3.131054      2.749194
  H       0.710962      1.549469      1.187041
34
Coordinates from ORCA-job data/geom_opt/70874/70874 E -2413.514481787002
  C      -0.721783     -2.416078     -1.672533
  C      -1.175654     -3.677790     -1.288668
  C      -1.812309     -3.826140     -0.052450
  C      -1.992380     -2.729858      0.794606
  C      -1.521475     -1.474824      0.401912
  C      -0.876414     -1.299817     -0.832286
  P      -0.213529      0.315544     -1.438743
  C       1.537864      0.227419     -0.854129
  C       2.427991      1.201827     -1.338234
  C       3.763723      1.223399     -0.937622
  C       4.225882      0.244105     -0.052748
  C       3.365672     -0.744738      0.430868
  C       2.027375     -0.745929      0.030564
  Cl      5.899067      0.254672      0.447973
  C      -0.943160      1.486501     -0.208455
  C      -2.235805      1.972987     -0.470405
  C      -2.870364      2.849123      0.409781
  C      -2.196711      3.263284      1.563202
  C      -0.905621      2.806640      1.839177
  C      -0.287846      1.919247      0.954718
  Cl     -2.976897      4.369178      2.667218
  Cl     -2.394178     -5.399296      0.434464
  H      -0.235205     -2.297952     -2.645083
  H      -1.048690     -4.542621     -1.941766
  H      -2.494335     -2.862654      1.754424
  H      -1.658215     -0.623445      1.071288
  H       2.069952      1.960570     -2.040144
  H       4.449601      1.985118     -1.311732
  H       3.743292     -1.503593      1.118196
  H       1.358895     -1.516800      0.418599
  H      -2.757915      1.659383     -1.379039
  H      -3.875925      3.219935      0.205017
  H      -0.392993      3.142437      2.742117
  H       0.718092      1.560169      1.179915
34
Coordinates from ORCA-job data/geom_opt/70874/70874 E -2413.514482596659
  C      -0.722772     -2.415399     -1.673185
  C      -1.176676     -3.677219     -1.289562
  C      -1.812086     -3.826084     -0.052715
  C      -1.990955     -2.730258      0.795333
  C      -1.520161     -1.475087      0.402952
  C      -0.876277     -1.299771     -0.831850
  P      -0.213353      0.315322     -1.437994
  C       1.537792      0.227267     -0.853696
  C       2.427714      1.201309     -1.339001
  C       3.763528      1.223101     -0.938549
  C       4.225722      0.244500     -0.052842
  C       3.365522     -0.743919      0.431885
  C       2.027162     -0.745475      0.031767
  Cl      5.898835      0.255201      0.447428
  C      -0.942939      1.486265     -0.208159
  C      -2.235119      1.973410     -0.471350
  C      -2.869928      2.849616      0.408644
  C      -2.196965      3.263029      1.562802
  C      -0.906290      2.805608      1.839833
  C      -0.288148      1.918211      0.955621
  Cl     -2.977260      4.369042      2.666305
  Cl     -2.394068     -5.399106      0.433778
  H      -0.237101     -2.296626     -2.646135
  H      -1.050892     -4.541881     -1.943172
  H      -2.491909     -2.863840      1.755598
  H      -1.655685     -0.623957      1.072912
  H       2.069430      1.959425     -2.041497
  H       4.449687      1.984279     -1.313350
  H       3.743468     -1.502018      1.119916
  H       1.358455     -1.515760      0.420632
  H      -2.756480      1.660235     -1.380585
  H      -3.875097      3.221307      0.203354
  H      -0.394523      3.140977      2.743456
  H       0.717370      1.558294      1.181427
