25
Coordinates from ORCA-job data/geom_opt/77639/77639 E -854.938066598250
  C       2.520376     -1.288477     -0.135203
  C       1.641830     -0.037559     -0.150443
  P       0.003720     -0.301190      0.692044
  C      -0.739946      1.391905      0.484480
  C      -0.187344      2.405166      1.486879
  C      -0.843235      3.707414      1.311342
  N      -1.368278      4.730818      1.161682
  C      -0.903580     -1.216832     -0.650008
  C      -2.327077     -1.598695     -0.244168
  C      -2.977605     -2.360539     -1.318067
  N      -3.480077     -2.960369     -2.174310
  C       3.816675     -1.010188     -0.766882
  N       4.836074     -0.777463     -1.268965
  H       2.683598     -1.627402      0.895037
  H       2.030447     -2.112449     -0.666258
  H       1.475765      0.301892     -1.179900
  H       2.164439      0.773760      0.369854
  H      -0.578669      1.741294     -0.542411
  H      -1.824153      1.305707      0.622794
  H       0.894254      2.526480      1.358773
  H      -0.347872      2.052953      2.513077
  H      -0.339678     -2.128566     -0.879839
  H      -0.914757     -0.612488     -1.565011
  H      -2.921119     -0.703843     -0.026602
  H      -2.313787     -2.201332      0.672105
25
Coordinates from ORCA-job data/geom_opt/77639/77639 E -854.939335535847
  C       2.534830     -1.284847     -0.128972
  C       1.636327     -0.036287     -0.164904
  P       0.003017     -0.303588      0.696070
  C      -0.734149      1.395395      0.471288
  C      -0.196806      2.412818      1.492899
  C      -0.838195      3.721104      1.330563
  N      -1.354871      4.747883      1.187254
  C      -0.906143     -1.205162     -0.660933
  C      -2.330384     -1.614754     -0.247078
  C      -2.997612     -2.372205     -1.310291
  N      -3.509260     -2.968313     -2.161547
  C       3.832996     -1.025989     -0.759123
  N       4.852842     -0.803599     -1.261333
  H       2.700974     -1.608052      0.911854
  H       2.054865     -2.129664     -0.649116
  H       1.466592      0.287117     -1.206364
  H       2.151655      0.792815      0.345558
  H      -0.556464      1.751324     -0.558085
  H      -1.825296      1.305172      0.592935
  H       0.892502      2.540578      1.384779
  H      -0.372252      2.053869      2.520405
  H      -0.328366     -2.110377     -0.906626
  H      -0.933128     -0.586284     -1.574333
  H      -2.941499     -0.728303     -0.011733
  H      -2.302173     -2.230653      0.666836
25
Coordinates from ORCA-job data/geom_opt/77639/77639 E -854.939533375331
  C       2.542326     -1.281125     -0.126606
  C       1.635525     -0.036285     -0.176737
  P       0.004147     -0.303365      0.696424
  C      -0.728369      1.400517      0.460882
  C      -0.207118      2.415362      1.496682
  C      -0.838526      3.727780      1.345074
  N      -1.350302      4.757611      1.206598
  C      -0.908387     -1.197883     -0.668460
  C      -2.328935     -1.622313     -0.248358
  C      -3.009570     -2.378831     -1.301220
  N      -3.528896     -2.974547     -2.148020
  C       3.842843     -1.038434     -0.754182
  N       4.864624     -0.824378     -1.255962
  H       2.707475     -1.593186      0.918570
  H       2.068389     -2.135892     -0.638210
  H       1.466490      0.274905     -1.222327
  H       2.146423      0.800667      0.326740
  H      -0.536662      1.763017     -0.563961
  H      -1.821510      1.307541      0.567645
  H       0.884372      2.546963      1.405996
  H      -0.395198      2.049267      2.520243
  H      -0.324601     -2.097918     -0.921794
  H      -0.947006     -0.574717     -1.578864
  H      -2.947496     -0.742355     -0.003383
  H      -2.290038     -2.242405      0.663230
25
Coordinates from ORCA-job data/geom_opt/77639/77639 E -854.939554230407
  C       2.543227     -1.278607     -0.125396
  C       1.635852     -0.035393     -0.180269
  P       0.003676     -0.302811      0.694700
  C      -0.728564      1.402815      0.458108
  C      -0.208781      2.415137      1.495844
  C      -0.836742      3.729659      1.350015
  N      -1.347192      4.760655      1.214461
  C      -0.909809     -1.196618     -0.672225
  C      -2.327537     -1.624855     -0.249398
  C      -3.013304     -2.381743     -1.298395
  N      -3.535037     -2.977755     -2.143646
  C       3.845702     -1.041674     -0.750681
  N       4.868728     -0.830033     -1.251186
  H       2.706256     -1.588041      0.920731
  H       2.070932     -2.135310     -0.635127
  H       1.468745      0.272585     -1.226458
  H       2.144664      0.802842      0.322819
  H      -0.535839      1.767366     -0.565136
  H      -1.821464      1.308638      0.564241
  H       0.882792      2.546775      1.406898
  H      -0.397291      2.046646      2.518285
  H      -0.324065     -2.094843     -0.926588
  H      -0.952489     -0.573384     -1.581657
  H      -2.947598     -0.746845     -0.001588
  H      -2.284863     -2.245213      0.661648
25
Coordinates from ORCA-job data/geom_opt/77639/77639 E -854.939558524594
  C       2.542842     -1.277868     -0.125984
  C       1.637119     -0.034474     -0.181317
  P       0.004116     -0.302118      0.693383
  C      -0.729198      1.403791      0.456965
  C      -0.210017      2.414449      1.495408
  C      -0.837309      3.729727      1.351922
  N      -1.348078      4.760718      1.217201
  C      -0.909449     -1.197397     -0.673380
  C      -2.326473     -1.624040     -0.249501
  C      -3.014444     -2.381918     -1.296562
  N      -3.536651     -2.978681     -2.141046
  C       3.846529     -1.043288     -0.750010
  N       4.870110     -0.832102     -1.249664
  H       2.704477     -1.588104      0.920010
  H       2.070245     -2.133990     -0.636223
  H       1.471190      0.273990     -1.227260
  H       2.145328      0.803006      0.323347
  H      -0.536492      1.769252     -0.565665
  H      -1.821825      1.308061      0.563228
  H       0.881473      2.546261      1.406886
  H      -0.398201      2.044821      2.517387
  H      -0.323525     -2.095997     -0.925469
  H      -0.951967     -0.575833     -1.583631
  H      -2.945802     -0.745400     -0.002486
  H      -2.283997     -2.242867      0.662462
25
Coordinates from ORCA-job data/geom_opt/77639/77639 E -854.939559594524
  C       2.542272     -1.277587     -0.125684
  C       1.637228     -0.034070     -0.181548
  P       0.003760     -0.301872      0.692502
  C      -0.729920      1.404156      0.456875
  C      -0.209212      2.414103      1.494815
  C      -0.836279      3.729751      1.352276
  N      -1.347457      4.760559      1.217699
  C      -0.909797     -1.197571     -0.674168
  C      -2.326243     -1.624293     -0.249472
  C      -3.014695     -2.382262     -1.296345
  N      -3.536406     -2.979045     -2.141120
  C       3.846518     -1.043263     -0.748965
  N       4.870224     -0.831360     -1.248060
  H       2.703175     -1.588253      0.920284
  H       2.069775     -2.133508     -0.636312
  H       1.471792      0.274635     -1.227473
  H       2.144800      0.803285      0.323914
  H      -0.538412      1.769552     -0.565974
  H      -1.822326      1.307884      0.564558
  H       0.882208      2.545551      1.405073
  H      -0.396116      2.044455      2.517006
  H      -0.323301     -2.095886     -0.925818
  H      -0.952594     -0.576153     -1.584479
  H      -2.945555     -0.745768     -0.002093
  H      -2.283439     -2.243045      0.662509
