25
Coordinates from ORCA-job data/geom_opt/77639/77639 E -854.939559594524
  C           2.54227220802851     -1.27758748895586     -0.12568368690632
  C           1.63722835798235     -0.03406990854486     -0.18154779972840
  P           0.00375990299667     -0.30187151581009      0.69250236187885
  C          -0.72992003306662      1.40415601591266      0.45687543797439
  C          -0.20921216522734      2.41410338630779      1.49481453017314
  C          -0.83627857642939      3.72975115190418      1.35227553468711
  N          -1.34745656827370      4.76055864992371      1.21769875793944
  C          -0.90979731507820     -1.19757125620051     -0.67416779830525
  C          -2.32624341222689     -1.62429262254127     -0.24947183161015
  C          -3.01469468396319     -2.38226160290626     -1.29634510069836
  N          -3.53640635970232     -2.97904528726547     -2.14111995982452
  C           3.84651761736765     -1.04326267541718     -0.74896508224194
  N           4.87022428270320     -0.83135951735589     -1.24805978979051
  H           2.70317481163235     -1.58825259930901      0.92028388970882
  H           2.06977541227002     -2.13350793503453     -0.63631193843724
  H           1.47179204257386      0.27463511306441     -1.22747296220932
  H           2.14480017092965      0.80328507737382      0.32391350580846
  H          -0.53841152815011      1.76955189007458     -0.56597383893223
  H          -1.82232579748352      1.30788379168299      0.56455761842422
  H           0.88220826337306      2.54555095389150      1.40507343286321
  H          -0.39611604131262      2.04445504754294      2.51700579837924
  H          -0.32330114752035     -2.09588632893668     -0.92581811883690
  H          -0.95259395565384     -0.57615273280903     -1.58447892209056
  H          -2.94555502115720     -0.74576760099240     -0.00209286375780
  H          -2.28343946461202     -2.24304500559954      0.66250882553263
