! RIJCOSX M062X def2-TZVP D3ZERO NormalSCF
%pal
nprocs 6
end

* xyz 0 1
  C           3.99943425906156     -0.69036225613053      1.18169031797494
  N           2.88449033648483     -0.09983127719591      0.46364966226826
  C           2.58776258714806      1.24555542400103      0.93026449849326
  C           3.05218877057367     -0.18579186602635     -0.98461402571512
  C           1.75575468388335      0.10249649826299     -1.75524539160892
  C           0.62079563659910     -0.84767575153719     -1.34438919047781
  P          -1.06895713327308     -0.13011729880899     -1.72538594033435
  C          -2.19102495231554     -1.34184777226998     -0.89159817169068
  C          -3.56759521989557     -1.01866535207789     -0.85042502101979
  C          -4.49201462389278     -1.88560607646828     -0.25233500997064
  C          -4.06043837649255     -3.10560134197139      0.29956299054922
  C          -2.69928059738731     -3.44389410048065      0.25253310906787
  C          -1.76924272428279     -2.56738597722447     -0.33425945850150
  C          -1.05233970695254      1.21533272953756     -0.44128548999952
  C          -0.82367074593818      2.54043492801897     -0.86865483641724
  C          -0.70565289540592      3.58388482893623      0.06609344632999
  C          -0.83395687876328      3.31438509043356      1.43827342805034
  C          -1.07837439277822      1.99885438446359      1.87234738062135
  C          -1.18318920516235      0.95591218406150      0.94012590232225
  H           3.79236585652130     -0.69176474533643      2.27183505828539
  H           4.14654179884871     -1.74215864076452      0.86045852539923
  H           4.97233960926811     -0.14800823034091      1.02431662967943
  H           1.65788697447398      1.63110556256436      0.46964915989187
  H           3.41258567574280      1.97799852282047      0.71132414346929
  H           2.42638715950538      1.23406674067787      2.02678905821699
  H           3.39223031098427     -1.21823366980588     -1.21890781207801
  H           3.86271306116143      0.50383172907802     -1.35169112229822
  H           1.95673427379291      0.03078397094219     -2.84422864499758
  H           1.45747128889337      1.15764418359203     -1.57629757566053
  H           0.71134658377417     -1.81748517833997     -1.87925690562656
  H           0.70545633701704     -1.04962409323026     -0.25468272368723
  H          -3.91251237509995     -0.06799329325064     -1.28915451598154
  H          -5.55814178277186     -1.61206793489066     -0.22153859534169
  H          -4.78628376976398     -3.79122955545779      0.76302430144539
  H          -2.35246733880928     -4.39664388466270      0.68230498861780
  H          -0.70553264024827     -2.84544404348085     -0.34696660062246
  H          -0.73728119876272      2.75183624906009     -1.94674230294155
  H          -0.52017301612014      4.61240924788766     -0.28027317592509
  H          -0.74775789613504      4.13075239143629      2.17179019845486
  H          -1.18227138762938      1.78392028915251      2.94731115162301
  H          -1.36632934585329     -0.07377261517468      1.28458956013533
*