34
Coordinates from ORCA-job data/geom_opt/121600/121600 E -2413.514618789181
  C          -3.02746552611422     -2.51199041766256     -0.93822269687527
  C          -2.19716349354629     -1.49831251781190     -1.41979938045803
  C          -0.96554602626469     -1.23218461722858     -0.79742039894647
  C          -0.56917937591272     -2.00954137869696      0.30027797158042
  C          -1.40567641165650     -3.02877363058362      0.76283021267067
  C          -2.63717035152650     -3.28846244567652      0.15604529927044
  Cl         -0.90139832773664     -3.99230482299582      2.13247776910780
  P           0.04826325358266      0.15162721678255     -1.48914931322253
  C           1.65535328257496     -0.11550651973646     -0.61187852525814
  C           2.55160294439131     -1.01956035696695     -1.20581369625767
  C           3.77363072662988     -1.29325902838611     -0.58986606890844
  C           4.13538207993399     -0.66503452685372      0.60604023607837
  C           3.24785718248656      0.24374790536434      1.18521140103656
  C           2.01453138503013      0.51879961087797      0.58705339582604
  Cl          4.87503574298007     -2.43079887305535     -1.33146315120536
  C          -0.63318250632859      1.59370913794215     -0.55187611739580
  C          -1.51524352111984      1.46776839119061      0.53085163087423
  C          -1.97939727701791      2.61446781950965      1.18094101128639
  C          -1.57789299069330      3.89052216733955      0.77784369185642
  C          -0.69951387017914      4.01120844815940     -0.30247870583303
  C          -0.23724001559218      2.87578758348913     -0.97006895239525
  Cl         -3.08035197680588      2.44497398028021      2.52969677736041
  H          -3.98666395367879     -2.70936105140001     -1.42331896390425
  H          -2.50573802382260     -0.90483775815272     -2.28465478625495
  H           0.38061672225172     -1.82757164096893      0.80353478159449
  H          -3.27211968865600     -4.08980319758368      0.53679008402203
  H           2.30013250433634     -1.51589043371192     -2.14579002192932
  H           5.09889596780275     -0.88800428677228      1.06668410407506
  H           3.52095337511372      0.74017511613362      2.11984451748295
  H           1.32901103062790      1.22455233048251      1.05853297007064
  H          -1.84183350853040      0.48724996917638      0.87789523989342
  H          -1.95471860557259      4.76999877201053      1.30209219783941
  H          -0.38251240075627      5.00450771761046     -0.63000895118329
  H           0.43873965376908      2.98210333789503     -1.82283456189794
