34
Coordinates from ORCA-job data/geom_opt/121600/121600 E -2413.508479782880
  C      -3.296128     -2.182510     -0.321687
  C      -2.419882     -1.204959     -0.802917
  C      -1.024629     -1.346316     -0.679951
  C      -0.537286     -2.532854     -0.109952
  C      -1.414955     -3.508041      0.370406
  C      -2.791989     -3.334886      0.273322
  Cl     -0.785974     -4.942877      1.084179
  P       0.078191     -0.062011     -1.358299
  C       1.637659     -0.239119     -0.428618
  C       2.826956     -0.394813     -1.159689
  C       4.051699     -0.530441     -0.503617
  C       4.116604     -0.514284      0.886343
  C       2.946837     -0.360681      1.626059
  C       1.718202     -0.223242      0.973017
  Cl      5.494913     -0.719633     -1.422286
  C      -0.551685      1.508963     -0.667627
  C      -1.249316      1.616285      0.544604
  C      -1.692310      2.858985      1.002619
  C      -1.449937      4.015357      0.267389
  C      -0.756454      3.928998     -0.936525
  C      -0.311277      2.686744     -1.398202
  Cl     -2.545958      2.960765      2.494053
  H      -4.370224     -2.044128     -0.418818
  H      -2.846216     -0.323241     -1.280410
  H       0.531490     -2.719665     -0.039849
  H      -3.472789     -4.095413      0.645730
  H       2.805824     -0.410978     -2.247497
  H       5.070082     -0.620329      1.396548
  H       2.987774     -0.347763      2.712645
  H       0.824560     -0.112362      1.582145
  H      -1.452212      0.736794      1.149841
  H      -1.794531      4.981315      0.626236
  H      -0.558741      4.826644     -1.517308
  H       0.231700      2.649698     -2.341885
34
Coordinates from ORCA-job data/geom_opt/121600/121600 E -2413.511876315080
  C      -3.272536     -2.184414     -0.335066
  C      -2.415125     -1.196474     -0.824081
  C      -1.020674     -1.312341     -0.676113
  C      -0.509092     -2.456983     -0.043906
  C      -1.372136     -3.446100      0.437882
  C      -2.755717     -3.314517      0.302632
  Cl     -0.713019     -4.846696      1.227130
  P       0.071018     -0.049843     -1.422356
  C       1.630186     -0.247903     -0.474435
  C       2.815112     -0.439056     -1.202415
  C       4.038798     -0.579133     -0.539233
  C       4.099408     -0.535986      0.855080
  C       2.923300     -0.350101      1.586105
  C       1.699653     -0.206598      0.928182
  Cl      5.493960     -0.811197     -1.459449
  C      -0.570014      1.510466     -0.695586
  C      -1.332436      1.573643      0.481999
  C      -1.763488      2.806240      0.980100
  C      -1.441604      3.994194      0.318790
  C      -0.685235      3.939340     -0.853505
  C      -0.261379      2.708085     -1.361628
  Cl     -2.707544      2.859226      2.438381
  H      -4.352527     -2.071996     -0.452909
  H      -2.847596     -0.327086     -1.326637
  H       0.566530     -2.595647      0.079024
  H      -3.424395     -4.085670      0.689311
  H       2.791614     -0.477635     -2.293499
  H       5.056136     -0.646953      1.368797
  H       2.960991     -0.314909      2.677244
  H       0.797554     -0.062113      1.526330
  H      -1.605721      0.664908      1.020992
  H      -1.782554      4.953942      0.711421
  H      -0.432684      4.861341     -1.381893
  H       0.321214      2.687967     -2.286691
34
Coordinates from ORCA-job data/geom_opt/121600/121600 E -2413.512920463319
  C      -3.257092     -2.236666     -0.433369
  C      -2.415109     -1.228968     -0.904335
  C      -1.026636     -1.297097     -0.686701
  C      -0.501778     -2.411351     -0.013055
  C      -1.354478     -3.420569      0.445565
  C      -2.735953     -3.342328      0.247165
  Cl     -0.677520     -4.794232      1.290747
  P       0.060845     -0.026318     -1.451450
  C       1.623849     -0.232793     -0.487189
  C       2.784614     -0.556073     -1.203915
  C       4.004804     -0.707181     -0.534402
  C       4.083957     -0.537779      0.850675
  C       2.924745     -0.212077      1.564553
  C       1.705344     -0.057872      0.904770
  Cl      5.442973     -1.111924     -1.443022
  C      -0.588121      1.526757     -0.686348
  C      -1.316099      1.566173      0.514043
  C      -1.731848      2.791566      1.040931
  C      -1.428220      3.993529      0.391404
  C      -0.702807      3.953295     -0.802497
  C      -0.292667      2.731797     -1.342924
  Cl     -2.640454      2.820091      2.536028
  H      -4.335704     -2.162884     -0.599501
  H      -2.846672     -0.377876     -1.438982
  H       0.570245     -2.504278      0.167744
  H      -3.390407     -4.134211      0.618501
  H       2.743660     -0.694571     -2.287281
  H       5.041735     -0.657684      1.362578
  H       2.977799     -0.074738      2.648425
  H       0.814391      0.202758      1.481926
  H      -1.573705      0.647534      1.044492
  H      -1.761669      4.944343      0.813836
  H      -0.464709      4.885689     -1.322604
  H       0.262685      2.715943     -2.285805
34
Coordinates from ORCA-job data/geom_opt/121600/121600 E -2413.513295439638
  C      -3.227059     -2.265911     -0.450850
  C      -2.401537     -1.249744     -0.930040
  C      -1.015085     -1.288920     -0.693315
  C      -0.474129     -2.375239      0.010407
  C      -1.315201     -3.391855      0.472949
  C      -2.694303     -3.351392      0.253318
  Cl     -0.618787     -4.739782      1.354202
  P       0.052991      0.006118     -1.468083
  C       1.636302     -0.196414     -0.516854
  C       2.741521     -0.693721     -1.219171
  C       3.964005     -0.870476     -0.560869
  C       4.103321     -0.551149      0.791602
  C       2.996033     -0.050039      1.486830
  C       1.772379      0.129322      0.843382
  Cl      5.339032     -1.495975     -1.451201
  C      -0.617422      1.545024     -0.671847
  C      -1.474126      1.542192      0.440020
  C      -1.889337      2.752887      0.997521
  C      -1.467353      3.977983      0.468845
  C      -0.621690      3.974366     -0.643395
  C      -0.204583      2.770795     -1.216928
  Cl     -2.958195      2.733703      2.389383
  H      -4.304844     -2.218081     -0.629670
  H      -2.837949     -0.411538     -1.479770
  H       0.594524     -2.436521      0.215227
  H      -3.331319     -4.153988      0.628728
  H       2.654091     -0.949341     -2.277530
  H       5.065768     -0.692947      1.286752
  H       3.096457      0.203543      2.545688
  H       0.920929      0.525571      1.399406
  H      -1.831813      0.606387      0.871594
  H      -1.807307      4.911709      0.920449
  H      -0.291916      4.925136     -1.071288
  H       0.446599      2.778301     -2.095493
34
Coordinates from ORCA-job data/geom_opt/121600/121600 E -2413.513839532409
  C      -3.172429     -2.383114     -0.624023
  C      -2.367640     -1.350833     -1.103979
  C      -1.015981     -1.267532     -0.721256
  C      -0.486101     -2.243254      0.134191
  C      -1.306670     -3.277111      0.593914
  C      -2.650563     -3.362442      0.227102
  Cl     -0.627455     -4.488134      1.665602
  P       0.034233      0.059596     -1.475757
  C       1.634030     -0.164011     -0.552229
  C       2.683979     -0.780604     -1.244750
  C       3.903779     -1.004239     -0.597945
  C       4.098833     -0.614567      0.727556
  C       3.046427      0.003901      1.411463
  C       1.822222      0.229736      0.783218
  Cl      5.210143     -1.777255     -1.473583
  C      -0.633541      1.578792     -0.633783
  C      -1.511965      1.548093      0.459581
  C      -1.924398      2.746354      1.044421
  C      -1.482671      3.983013      0.565314
  C      -0.616959      4.006354     -0.530114
  C      -0.199791      2.817610     -1.132964
  Cl     -3.016656      2.695214      2.416146
  H      -4.223760     -2.433542     -0.918045
  H      -2.791532     -0.595753     -1.770517
  H       0.552845     -2.202507      0.459703
  H      -3.267297     -4.178302      0.604573
  H       2.555815     -1.089608     -2.283765
  H       5.060814     -0.794809      1.208533
  H       3.190431      0.310277      2.450372
  H       1.010571      0.711970      1.328343
  H      -1.883325      0.603659      0.856792
  H      -1.822896      4.902331      1.042822
  H      -0.271045      4.966846     -0.919823
  H       0.468552      2.843872     -1.997114
34
Coordinates from ORCA-job data/geom_opt/121600/121600 E -2413.514320613951
  C      -3.126304     -2.423180     -0.738747
  C      -2.314098     -1.398041     -1.223290
  C      -0.992276     -1.258000     -0.762071
  C      -0.496272     -2.170612      0.178897
  C      -1.321325     -3.199796      0.641418
  C      -2.635990     -3.339054      0.196465
  Cl     -0.688398     -4.331089      1.816723
  P       0.038876      0.099440     -1.485766
  C       1.643861     -0.132417     -0.584183
  C       2.626038     -0.899320     -1.226822
  C       3.840487     -1.147900     -0.581395
  C       4.101377     -0.634114      0.689522
  C       3.122144      0.138794      1.320031
  C       1.900398      0.390879      0.693643
  Cl      5.056223     -2.110937     -1.387502
  C      -0.632574      1.584727     -0.598049
  C      -1.518211      1.513741      0.486566
  C      -1.954236      2.692790      1.095213
  C      -1.525153      3.945701      0.652529
  C      -0.645100      4.010008     -0.430017
  C      -0.207259      2.842635     -1.058236
  Cl     -3.055209      2.594235      2.451749
  H      -4.154219     -2.519275     -1.096487
  H      -2.709139     -0.694398     -1.960762
  H       0.519165     -2.087217      0.564553
  H      -3.256177     -4.150834      0.577427
  H       2.449771     -1.304131     -2.225097
  H       5.059499     -0.837015      1.169236
  H       3.319502      0.544875      2.315007
  H       1.142184      0.991906      1.197770
  H      -1.870548      0.553650      0.863701
  H      -1.882193      4.847785      1.150298
  H      -0.306827      4.984548     -0.789949
  H       0.471980      2.901618     -1.912376
34
Coordinates from ORCA-job data/geom_opt/121600/121600 E -2413.514541663782
  C      -3.082390     -2.458894     -0.839939
  C      -2.252489     -1.449821     -1.329533
  C      -0.974356     -1.247318     -0.779452
  C      -0.532631     -2.087475      0.252129
  C      -1.371021     -3.103632      0.720627
  C      -2.646358     -3.298923      0.188678
  Cl     -0.808191     -4.144897      2.006163
  P       0.046056      0.123033     -1.487839
  C       1.653471     -0.123053     -0.605013
  C       2.596128     -0.955200     -1.229308
  C       3.814486     -1.216487     -0.598278
  C       4.122561     -0.647385      0.639744
  C       3.188335      0.193395      1.248875
  C       1.960136      0.456371      0.636555
  Cl      4.975238     -2.262639     -1.376953
  C      -0.629232      1.582104     -0.572540
  C      -1.522961      1.479398      0.502295
  C      -1.978952      2.641515      1.131318
  C      -1.558977      3.906885      0.716419
  C      -0.666888      4.003553     -0.355067
  C      -0.211398      2.853843     -1.001971
  Cl     -3.093331      2.504722      2.470435
  H      -4.077370     -2.603347     -1.267789
  H      -2.600202     -0.808463     -2.144053
  H       0.451451     -1.959188      0.701625
  H      -3.279443     -4.099385      0.573674
  H       2.385669     -1.401792     -2.203292
  H       5.083286     -0.860558      1.110465
  H       3.423386      0.643786      2.216381
  H       1.235999      1.108703      1.126562
  H      -1.861157      0.506865      0.860893
  H      -1.931182      4.796138      1.226845
  H      -0.334363      4.988584     -0.691467
  H       0.476687      2.939564     -1.847189
34
Coordinates from ORCA-job data/geom_opt/121600/121600 E -2413.514592352870
  C      -3.035890     -2.496920     -0.916154
  C      -2.200390     -1.490515     -1.402314
  C      -0.960917     -1.235930     -0.790245
  C      -0.560406     -2.020004      0.300512
  C      -1.402228     -3.034396      0.766608
  C      -2.641710     -3.280967      0.172132
  Cl     -0.891519     -4.007954      2.126299
  P       0.048822      0.146987     -1.489760
  C       1.660775     -0.112091     -0.619825
  C       2.559184     -1.012140     -1.216221
  C       3.780835     -1.285318     -0.597861
  C       4.138131     -0.660357      0.600706
  C       3.248568      0.245829      1.181469
  C       2.015966      0.520195      0.582022
  Cl      4.885563     -2.416891     -1.341185
  C      -0.633130      1.587490     -0.552035
  C      -1.538731      1.461103      0.510436
  C      -2.005815      2.609065      1.157797
  C      -1.584273      3.883599      0.772038
  C      -0.681277      4.003724     -0.288610
  C      -0.216126      2.868590     -0.953641
  Cl     -3.136372      2.442202      2.481360
  H      -4.001617     -2.683351     -1.392524
  H      -2.511928     -0.892697     -2.263316
  H       0.394954     -1.849308      0.796710
  H      -3.279371     -4.078449      0.556503
  H       2.311093     -1.503380     -2.159677
  H       5.101078     -0.883660      1.062566
  H       3.521289      0.739464      2.117724
  H       1.327161      1.224051      1.051215
  H      -1.877845      0.480605      0.845181
  H      -1.965242      4.762081      1.294998
  H      -0.348108      4.996286     -0.602125
  H       0.479474      2.973060     -1.790782
34
Coordinates from ORCA-job data/geom_opt/121600/121600 E -2413.514609353159
  C      -3.043319     -2.488474     -0.907911
  C      -2.207913     -1.481361     -1.393589
  C      -0.962707     -1.236253     -0.789513
  C      -0.557358     -2.029349      0.293079
  C      -1.399140     -3.043000      0.760066
  C      -2.644322     -3.280513      0.172667
  Cl     -0.882606     -4.026775      2.110454
  P       0.051442      0.143208     -1.486976
  C       1.658624     -0.120074     -0.610073
  C       2.568527     -1.001185     -1.217261
  C       3.791937     -1.270966     -0.601147
  C       4.139385     -0.661289      0.608479
  C       3.237906      0.224924      1.201545
  C       2.004030      0.495553      0.603034
  Cl      4.910753     -2.379477     -1.359322
  C      -0.630650      1.588047     -0.556153
  C      -1.525149      1.466330      0.516618
  C      -1.993167      2.616200      1.159442
  C      -1.582628      3.889958      0.758535
  C      -0.691373      4.006278     -0.312267
  C      -0.226065      2.868264     -0.972646
  Cl     -3.110244      2.453116      2.495321
  H      -4.013301     -2.668149     -1.378321
  H      -2.523896     -0.876394     -2.247849
  H       0.403361     -1.865817      0.782088
  H      -3.283304     -4.077104      0.556962
  H       2.327394     -1.481736     -2.168109
  H       5.103421     -0.881187      1.069870
  H       3.501709      0.706202      2.146798
  H       1.306950      1.183866      1.083328
  H      -1.857794      0.487149      0.861408
  H      -1.963142      4.771319      1.277177
  H      -0.367254      4.998032     -0.637729
  H       0.459890      2.970659     -1.818005
34
Coordinates from ORCA-job data/geom_opt/121600/121600 E -2413.514614569874
  C      -3.039389     -2.495552     -0.914670
  C      -2.206475     -1.485769     -1.399322
  C      -0.964128     -1.235273     -0.791556
  C      -0.559637     -2.024895      0.293950
  C      -1.398898     -3.040941      0.759578
  C      -2.641007     -3.284523      0.168114
  Cl     -0.883649     -4.020243      2.114019
  P       0.049911      0.145336     -1.488075
  C       1.657210     -0.118656     -0.610627
  C       2.563508     -1.006033     -1.213912
  C       3.786288     -1.277039     -0.597483
  C       4.137460     -0.662122      0.608373
  C       3.239495      0.230269      1.197384
  C       2.006067      0.502273      0.598587
  Cl      4.900863     -2.393453     -1.351189
  C      -0.632268      1.590050     -0.555892
  C      -1.524138      1.467887      0.519124
  C      -1.990033      2.617040      1.164144
  C      -1.580235      3.891153      0.763546
  C      -0.691583      4.007994     -0.309077
  C      -0.227724      2.870447     -0.971551
  Cl     -3.103774      2.452721      2.503061
  H      -4.007027     -2.679961     -1.387986
  H      -2.521902     -0.882761     -2.255110
  H       0.398470     -1.856112      0.786054
  H      -3.278050     -4.083012      0.551484
  H       2.319647     -1.491140     -2.161736
  H       5.101350     -0.882651      1.069576
  H       3.505460      0.715646      2.139881
  H       1.311848      1.195207      1.076425
  H      -1.857057      0.488650      0.863614
  H      -1.958952      4.772150      1.283952
  H      -0.367940      4.999938     -0.634315
  H       0.456288      2.973376     -1.818365
34
Coordinates from ORCA-job data/geom_opt/121600/121600 E -2413.514618150522
  C      -3.026867     -2.511621     -0.937599
  C      -2.196469     -1.498182     -1.419520
  C      -0.964815     -1.232037     -0.797081
  C      -0.568807     -2.008727      0.301095
  C      -1.405343     -3.027786      0.763919
  C      -2.636718     -3.287723      0.156954
  Cl     -0.901309     -3.990722      2.134259
  P       0.048495      0.151863     -1.489401
  C       1.655900     -0.115161     -0.612536
  C       2.551255     -1.020336     -1.205986
  C       3.773323     -1.294513     -0.590413
  C       4.136120     -0.665391      0.604704
  C       3.249440      0.244479      1.183477
  C       2.016081      0.519921      0.585659
  Cl      4.873708     -2.433554     -1.331629
  C      -0.633554      1.593662     -0.551914
  C      -1.518124      1.467352      0.528743
  C      -1.982781      2.613609      1.179117
  C      -1.579280      3.889772      0.778389
  C      -0.698425      4.010911     -0.299826
  C      -0.235549      2.875901     -0.967692
  Cl     -3.086849      2.443288      2.525443
  H      -3.985977     -2.709220     -1.422727
  H      -2.504868     -0.904858     -2.284520
  H       0.380826     -1.826450      0.804542
  H      -3.271789     -4.088795      0.538019
  H       2.298877     -1.517493     -2.145304
  H       5.099753     -0.888481      1.064981
  H       3.523293      0.741386      2.117617
  H       1.331067      1.226341      1.056967
  H      -1.846649      0.486700      0.873688
  H      -1.956495      4.768945      1.302843
  H      -0.379848      5.004324     -0.625421
  H       0.442373      2.982597     -1.818847
34
Coordinates from ORCA-job data/geom_opt/121600/121600 E -2413.514618789181
  C      -3.027466     -2.511990     -0.938223
  C      -2.197163     -1.498313     -1.419799
  C      -0.965546     -1.232185     -0.797420
  C      -0.569179     -2.009541      0.300278
  C      -1.405676     -3.028774      0.762830
  C      -2.637170     -3.288462      0.156045
  Cl     -0.901398     -3.992305      2.132478
  P       0.048263      0.151627     -1.489149
  C       1.655353     -0.115507     -0.611879
  C       2.551603     -1.019560     -1.205814
  C       3.773631     -1.293259     -0.589866
  C       4.135382     -0.665035      0.606040
  C       3.247857      0.243748      1.185211
  C       2.014531      0.518800      0.587053
  Cl      4.875036     -2.430799     -1.331463
  C      -0.633183      1.593709     -0.551876
  C      -1.515244      1.467768      0.530852
  C      -1.979397      2.614468      1.180941
  C      -1.577893      3.890522      0.777844
  C      -0.699514      4.011208     -0.302479
  C      -0.237240      2.875788     -0.970069
  Cl     -3.080352      2.444974      2.529697
  H      -3.986664     -2.709361     -1.423319
  H      -2.505738     -0.904838     -2.284655
  H       0.380617     -1.827572      0.803535
  H      -3.272120     -4.089803      0.536790
  H       2.300133     -1.515890     -2.145790
  H       5.098896     -0.888004      1.066684
  H       3.520953      0.740175      2.119845
  H       1.329011      1.224552      1.058533
  H      -1.841834      0.487250      0.877895
  H      -1.954719      4.769999      1.302092
  H      -0.382512      5.004508     -0.630009
  H       0.438740      2.982103     -1.822835
