! RI BP86 def2-SVP D3BJ TIGHTSCF Opt
%pal
nprocs 6
end

* xyz 0 1
C     -0.447664    1.601124   -1.654014
C     -0.701314    1.868456   -0.164046
C      0.244331    3.020615    0.266976
C     -2.136946    2.396703    0.046499
P     -0.398943    0.405417    0.960764
C      1.359878    0.000641    0.696610
C      2.294721    0.418000    1.657449
C      3.654543    0.132168    1.508766
C      4.099891   -0.579288    0.398125
C      3.186314   -1.005991   -0.561958
C      1.826597   -0.719137   -0.412641
C     -1.251080   -1.094993    0.384365
C     -2.298948   -1.130359   -0.541068
C     -2.914399   -2.335639   -0.905301
C     -2.502712   -3.535693   -0.336785
C     -1.480285   -3.530212    0.602815
C     -0.870182   -2.324181    0.962223
H     -0.689489    2.488508   -2.251940
H      0.602885    1.368097   -1.855664
H     -1.045278    0.780407   -2.054532
H      1.297939    2.780163    0.085907
H      0.135707    3.263333    1.331159
H      0.029235    3.935460   -0.298868
H     -2.321199    2.655114    1.096781
H     -2.907484    1.681753   -0.247470
H     -2.309276    3.304871   -0.544009
H      1.971399    0.972828    2.536102
H      4.363371    0.464674    2.262457
H      5.156865   -0.803278    0.282074
H      3.528575   -1.565191   -1.428755
H      1.136464   -1.068641   -1.177526
H     -2.674767   -0.230099   -1.009359
H     -3.722355   -2.329928   -1.632696
H     -2.982385   -4.468723   -0.618716
H     -1.155102   -4.459166    1.063340
H     -0.078905   -2.357811    1.710626
*