43
Coordinates from ORCA-job data/geom_opt_P_BP86/80362/80362 E -1153.686667498578
  C          -5.09904419075919     -1.34187716485516      0.08965235672899
  C          -3.61341802027951     -1.58300471976631     -0.03991574785052
  C          -2.69840497458985     -0.91294735349641      0.79568588154451
  C          -1.30472192484815     -1.08867368247852      0.66012524798896
  C          -0.81621731253650     -1.97861922034053     -0.31783518753795
  C          -1.71796106145845     -2.66835885480727     -1.14424280863879
  C          -3.10080700976469     -2.47069182748714     -1.01065183068757
  P          -0.22356761897338     -0.10880279359069      1.80144073189125
  C          -0.12272717152876      1.49893434513295      0.88402488109718
  C           0.48117711349264      2.58577269462085      1.55333153609927
  C           0.60959107760366      3.82342746033974      0.90691917932853
  C           0.12254045787024      3.99318769017440     -0.39967892882153
  C          -0.49371335926536      2.92542967194199     -1.08443380254485
  C          -0.60716910270401      1.68295350523640     -0.42572898336472
  C          -0.99159888170507      3.08965043782714     -2.50146233044952
  C           1.43863669487333     -0.83079841145416      1.41830889493635
  C           1.82091956346984     -1.98372673386266      2.13832107777408
  C           3.05970561121919     -2.58979695814466      1.88482677163586
  C           3.93211761546243     -2.04336984591291      0.92925200031035
  C           3.57647653574437     -0.88672332131838      0.20484740831269
  C           2.32289864047916     -0.29326791461523      0.46272137396444
  C           4.49606997531303     -0.31017459571670     -0.84611078709156
  H          -5.41794626821606     -0.47920728252370     -0.53505906489384
  H          -5.38485586567023     -1.10888950653281      1.13471166185980
  H          -5.68665949419333     -2.22070621781867     -0.24248932271066
  H          -3.07971303975586     -0.22910676210235      1.57313697741224
  H           0.26755348140875     -2.12849338649032     -0.43153007563873
  H          -1.33587115070258     -3.36845969851561     -1.90368926857257
  H          -3.79831996731885     -3.01852263691258     -1.66447900013792
  H           0.85029814144344      2.45624249737503      2.58344266646554
  H           1.08164389846498      4.66943370846400      1.43037230380608
  H           0.21549032559167      4.97291634808971     -0.89534817297750
  H          -1.08155479933650      0.83828728683776     -0.94921708954849
  H          -1.87123169417834      2.44560157693413     -2.70023860415069
  H          -1.27335043521842      4.13936558641958     -2.71754610456137
  H          -0.20682958300337      2.80357974483271     -3.23532654572399
  H           1.14281850196226     -2.40263892907120      2.89915255623342
  H           3.35577780461718     -3.48923229438127      2.44687205356346
  H           4.90979355349092     -2.51771650249911      0.74669283188525
  H           2.02956436101413      0.60910390384400     -0.09624161058951
  H           5.55854921013493     -0.53987031392826     -0.63084456807337
  H           4.26711135921949     -0.73023385521510     -1.84979113794574
  H           4.38694700313082      0.79002432576730     -0.92197642032686
