! RI BP86 def2-SVP D3BJ TIGHTSCF Opt
%pal
nprocs 6
end

* xyz 0 1
C     -1.546569    5.009897   -0.916755
C     -0.561270    4.061465   -0.252647
C     -0.794487    2.616698   -0.689626
C      0.192442    1.663196   -0.024093
P      0.003166   -0.051845   -0.527954
O      0.014242   -0.233402   -2.018755
C      1.322301   -0.947257    0.302216
C      2.711071   -0.668927   -0.263450
C      3.783995   -1.484582    0.455047
C      5.167435   -1.204982   -0.110015
C     -1.520868   -0.615399    0.240677
C     -1.910808   -2.042386   -0.130514
C     -3.230382   -2.451472    0.520690
C     -3.616634   -3.874374    0.149832
H     -1.361768    6.038088   -0.590294
H     -2.577542    4.750628   -0.655556
H     -1.449194    4.976741   -2.006600
H     -0.662306    4.142219    0.835907
H      0.459913    4.367907   -0.507497
H     -1.818695    2.316462   -0.443023
H     -0.697588    2.535804   -1.778649
H      1.211719    1.981066   -0.268019
H      0.091219    1.721305    1.065461
H      1.296753   -0.698718    1.369140
H      1.113788   -2.019157    0.218432
H      2.936878    0.399250   -0.174215
H      2.719160   -0.902751   -1.334508
H      3.777906   -1.247214    1.525234
H      3.565981   -2.554554    0.358616
H      5.430099   -0.148031    0.000504
H      5.919793   -1.798982    0.418213
H      5.216355   -1.462172   -1.172937
H     -1.418191   -0.526986    1.328055
H     -2.326963    0.062031   -0.060598
H     -1.117184   -2.731979    0.177020
H     -1.991646   -2.123522   -1.220829
H     -3.147403   -2.373901    1.611000
H     -4.028609   -1.768982    0.206511
H     -4.563692   -4.146460    0.626229
H     -3.738885   -3.978083   -0.933054
H     -2.853532   -4.586637    0.479542
*