41
Coordinates from ORCA-job data/geom_opt_PO_BP86/13831/13831 E -889.737131296514
  C          -1.52642918365407      5.02859629400766     -1.16367290104739
  C          -0.60790351123165      4.13854412999273     -0.32137673476879
  C          -0.79735042007363      2.64250611260164     -0.60333437744731
  C           0.12742924596335      1.74159159674681      0.22489776218057
  P           0.00211177683330     -0.02560246919904     -0.29491866244650
  O           0.01130281398233     -0.21049769208428     -1.80539121926812
  C           1.39690003495540     -0.88770811494129      0.55374734650038
  C           2.72969936038486     -0.66003558611803     -0.17061037080765
  C           3.88354814891063     -1.49863408606263      0.39432061878382
  C           5.20804883309113     -1.26731743120316     -0.33885439045758
  C          -1.53163304033428     -0.66569452066494      0.50929054953913
  C          -1.92609547638976     -2.04375239295974     -0.03714440525983
  C          -3.28480012977880     -2.53815218059671      0.47577207577517
  C          -3.67496049026609     -3.90921327988155     -0.08401172581912
  H          -1.36498504070241      6.10473851531979     -0.95010501031316
  H          -2.59611573723391      4.80480819178442     -0.96673431168503
  H          -1.35211654009175      4.87075484794452     -2.24857998631217
  H          -0.78042260952733      4.33482597050316      0.76088887166281
  H           0.45514208227246      4.41042017413090     -0.50921390314897
  H          -1.85943690059377      2.36605877671972     -0.41583785837258
  H          -0.61837910993117      2.42631888167472     -1.67853899441852
  H           1.18765353206854      2.03929069580886      0.07238375504060
  H          -0.07682502871082      1.81930007800422      1.31564764755612
  H           1.43757260335424     -0.56506126875983      1.61754102799020
  H           1.14271204183676     -1.97007741254846      0.55386514433473
  H           3.00395844890602      0.41803892511038     -0.12469677973966
  H           2.58074603485597     -0.88516194122186     -1.24862067506292
  H           4.00753158243481     -1.27352321176392      1.47765372963938
  H           3.60718758675724     -2.57566595026334      0.34177381563446
  H           5.52690805176472     -0.20589988419337     -0.26944867748441
  H           6.02431597674771     -1.88986088407011      0.08056748207041
  H           5.11702305819668     -1.51341729757701     -1.41749373789320
  H          -1.39238378053090     -0.67633156631762      1.61292084737773
  H          -2.33288590922549      0.07386946184312      0.29226326786134
  H          -1.14240764557456     -2.79071254544442      0.22262058477744
  H          -1.92937695462499     -1.98758888232811     -1.14695133482589
  H          -3.26786984457774     -2.57554278208350      1.58837992737741
  H          -4.06476198193404     -1.78864528916168      0.21290889733670
  H          -4.66328686122845     -4.24128737762683      0.29376633914965
  H          -3.72767893415604     -3.88890870728208     -1.19266048781632
  H          -2.93168608294451     -4.68536789783916      0.19572485380710
