! RIJCOSX M062X def2-TZVP D3ZERO NormalSCF
%pal
nprocs 6
end

* xyz 0 1
  C           1.43654162554470     -0.71532220734435     -0.46051299422252
  P           0.16845102909007      0.02561067558033      0.64701940635190
  O           0.57849696003686      0.08803298151262      2.10253183878361
  C          -1.34868811442695     -0.96640300562477      0.33466176769443
  C          -0.19358124797587      1.66559642222128     -0.10322811780677
  H           2.36695675773891     -0.11952433415044     -0.37846525759692
  H           1.10901724530849     -0.74681174607938     -1.51895210243186
  H           1.65324078830740     -1.74345965106080     -0.10932780506559
  H          -1.62348693613103     -0.99410721699365     -0.73879060582186
  H          -1.17610378655281     -1.99819150246823      0.69936166149593
  H          -2.18208952688199     -0.52890313300519      0.91898352665312
  H           0.71053320010619      2.29996614100236     -0.01654764038200
  H          -0.49118748530681      1.58851511634219     -1.16814664675428
  H          -1.00810050885715      2.14500146006802      0.47480196910281
*