34
Coordinates from ORCA-job data/geom_opt_P_BP86/69773/69773 E -3609.335962726059
  C          -3.20610611001572     -2.78987456411636      0.19762395398464
  C          -2.53340432875065     -3.01789136208149     -1.01569844311949
  C          -1.61379411819540     -2.07406148334933     -1.49727906260347
  C          -1.33821977174385     -0.89956490304853     -0.76187468865948
  C          -2.01874842499897     -0.67717519760631      0.45348995229503
  C          -2.94952669707533     -1.61700958686004      0.92692995093325
  P          -0.08335917918561      0.26340579624103     -1.47070851110105
  C          -0.28611154100228      1.72726196163927     -0.35447141155893
  C          -1.28794902343054      2.66138571101514     -0.70081320622098
  C          -1.52379294275145      3.78617162794890      0.10378899707979
  C          -0.74636403200666      4.00372171433485      1.25485888505453
  C           0.26201419572023      3.08788741415477      1.59806111437288
  C           0.49036268300277      1.95341125699821      0.80143433218230
  C           1.48073012398729     -0.46967295906127     -0.80342825663914
  C           2.69944650169162      0.05343109242765     -1.28993743078576
  C           3.93174609533931     -0.42851303278273     -0.82681237948128
  C           3.94496314630451     -1.46467645553499      0.12283696029198
  C           2.74854138312000     -2.01375572322410      0.61124118441368
  C           1.52264006467394     -1.50997769060056      0.14780192077161
  Br          5.61580628115022     -2.13971515453783      0.75171712528599
  H          -3.93451609797974     -3.52553690325023      0.57180176818229
  H          -2.73347945121375     -3.93219791416470     -1.59550570578233
  H          -1.09680967535308     -2.24860549654944     -2.45499862022030
  H          -1.81506465676345      0.23518064047773      1.03384766577988
  H          -3.47527061350547     -1.43193812682340      1.87658105834343
  H          -1.88955610957352      2.49915331796463     -1.60997900267459
  H          -2.31229262408536      4.50250991491597     -0.17420716931537
  H          -0.92411949783295      4.89077272576570      1.88200163867797
  H           0.87553068572500      3.25386918534294      2.49722105185728
  H           1.27518042274517      1.23500826696713      1.08183553600932
  H           2.68525412391132      0.85746057623187     -2.04360033173389
  H           4.87611082992898     -0.01210145524969     -1.20508652164395
  H           2.77492793470325     -2.82519878815105      1.35254473657522
  H           0.58522942346020     -1.93316640543374      0.53878190944892
