32
Coordinates from ORCA-job data/geom_opt_PO_BP86/137699/137699 E -996.730608131846
  C          -2.90334838274130     -2.61749284605073      0.12301847757375
  C          -1.78922759446231     -2.56371393830499     -0.62847759277853
  C          -0.43471341937110     -2.16285066232755     -0.12672367979023
  P           0.12898235213268     -0.59873781815448     -0.95353899084664
  O           0.20168413713677     -0.69984956051276     -2.46774717927174
  C          -1.01883323105527      0.70527441398974     -0.37987360016232
  C          -1.53793356800379      0.78224828838517      0.92870904487439
  C          -2.40633380258226      1.82782596353847      1.27882531585249
  C          -2.76394732690381      2.79522469498617      0.32363221735266
  C          -2.25901697827485      2.71227803769839     -0.98519076588349
  C          -1.39129563030991      1.66760829905296     -1.33933292686320
  C           1.76415119418781     -0.23547244548815     -0.20642946629127
  C           1.95684070816352      0.06123473202465      1.15795884918015
  C           3.25033978278957      0.30329421446238      1.64535522222397
  C           4.35241484061525      0.25327297447969      0.77300082384883
  C           4.16049969316764     -0.03517787960639     -0.58867647273227
  C           2.86818999838179     -0.27898135001554     -1.08066645709689
  H          -2.88348221030063     -2.39334500373739      1.20279717681884
  H          -3.87672485520499     -2.88877489294972     -0.31377523670530
  H          -1.84570530922946     -2.77595514115203     -1.71035820129960
  H          -0.40598807816394     -2.03942823398353      0.97587218307241
  H           0.34599730602770     -2.90361545977238     -0.40605097828917
  H          -1.27988559684560      0.02003411889175      1.67975329823330
  H          -2.81256224673233      1.88421106436131      2.30039150498769
  H          -3.44665710568982      3.61332443008187      0.60028078660689
  H          -2.54760522398499      3.46361934976964     -1.73628843306339
  H          -0.99589535161983      1.56807094620874     -2.36221285169702
  H           1.09770182077232      0.11925299452415      1.84390481361699
  H           3.40014028464476      0.53758503230950      2.71051340078862
  H           5.36575727863085      0.44555590033173      1.15790287328156
  H           5.02263420796386     -0.06746597219667     -1.27260451678457
  H           2.68382330686165     -0.49905225084398     -2.14396863875688
