! RI BP86 def2-SVP D3BJ TIGHTSCF Opt
%pal
nprocs 6
end

* xyz 0 1
C     -3.625327   -4.468712    0.818394
C     -2.715023   -3.384509    0.322506
C     -1.597259   -2.999387    1.070592
C     -0.728593   -2.013514    0.594532
C     -0.957059   -1.400471   -0.644638
C     -2.068772   -1.803979   -1.398825
C     -2.936592   -2.788597   -0.922977
P      0.114610   -0.108684   -1.305065
O      0.247176   -0.234395   -2.814580
C     -0.591450    1.488366   -0.853110
C     -1.473110    1.648709    0.224167
C     -1.981517    2.910433    0.544689
C     -1.611646    4.036510   -0.198609
C     -0.746628    3.878252   -1.285867
C     -0.238915    2.617889   -1.606380
C     -2.187181    5.383583    0.124207
C      1.724353   -0.254645   -0.504580
C      2.662726   -1.150606   -1.037713
C      3.916205   -1.310608   -0.444245
C      4.254205   -0.583284    0.701262
C      3.329237    0.325607    1.226332
C      2.074265    0.485671    0.632545
C      5.613969   -0.726600    1.318155
H     -3.267331   -5.444096    0.474908
H     -3.668363   -4.472292    1.912632
H     -4.647009   -4.317868    0.454188
H     -1.393115   -3.468317    2.031026
H      0.128744   -1.736772    1.202837
H     -2.252834   -1.349604   -2.371640
H     -3.784983   -3.088677   -1.534304
H     -1.779593    0.795773    0.824348
H     -2.672808    3.008100    1.379303
H     -0.463721    4.734685   -1.894161
H      0.432700    2.509278   -2.457169
H     -2.389549    5.474918    1.196553
H     -3.120982    5.533238   -0.426370
H     -1.486597    6.181810   -0.142714
H      2.413740   -1.722614   -1.930752
H      4.627560   -2.005305   -0.885728
H      3.581804    0.919334    2.102518
H      1.379032    1.198791    1.068159
H      5.574385   -0.544083    2.397203
H      6.003069   -1.740147    1.174780
H      6.308178   -0.013185    0.863590
*