! RIJCOSX M062X def2-TZVP D3ZERO NormalSCF
%pal
nprocs 6
end

* xyz 0 1
  C          -1.61578102781179     -3.41543928137048      0.79742855473855
  C          -1.54151356302322     -2.17763451847389      1.46238733341987
  C          -1.08076773449020     -1.03941503437381      0.78428522634035
  C          -0.68807243814247     -1.12359652937622     -0.56933960489093
  C          -0.77296767433253     -2.36669312333627     -1.22979713379689
  C          -1.23041263690927     -3.50885014593356     -0.54950367915533
  P          -0.00280726468031      0.32882298089632     -1.50654210208673
  C           1.61330740809719      0.52227108284979     -0.57831106150455
  C           2.55907524308685     -0.66300557437310     -0.80365203018590
  C           3.78184457463815     -0.62788834030069      0.12460996782486
  N           3.36601662812299     -0.64446276963545      1.52911349923930
  C          -1.02451278146669      1.68080743578986     -0.76296488628943
  C          -0.50412480034169      2.71864533813582      0.03855223529621
  C          -1.34510881287077      3.73346264623871      0.52923039784276
  C          -2.71690400103546      3.72255235281435      0.23406238445379
  C          -3.24634566409348      2.69214770009190     -0.56440898281560
  C          -2.40664749951981      1.68824022081473     -1.06492602608762
  H          -1.98029576969899     -4.30705716878300      1.33071213742958
  H          -1.84743801094146     -2.09999563661597      2.51747399092727
  H          -1.02945352359275     -0.07055484253392      1.30555183922367
  H          -0.47761230603829     -2.43445778975731     -2.28930754167695
  H          -1.29176995462574     -4.47378464351518     -1.07641959899770
  H           1.42961021506082      0.63023371314656      0.51165075782100
  H           2.09011595587384      1.46196106085147     -0.93344345927110
  H           2.01071142524003     -1.61631297388424     -0.62677282845131
  H           2.89744031086526     -0.70023527050208     -1.86124517658514
  H           4.34764031073986      0.31390218915956     -0.05294843870593
  H           4.47001401551001     -1.46267560938864     -0.16874674084725
  H           4.18301959486002     -0.56120057185873      2.14649234244191
  H           2.93290994696641     -1.55146003236500      1.75204861538513
  H           0.56507660585122      2.73934297106867      0.29426166139118
  H          -0.92170299017116      4.53540911216347      1.15405677134543
  H          -3.37412897651040      4.51541942307064      0.62285044313686
  H          -4.32133998021727      2.67476049278475     -0.80229362677498
  H          -2.82707382439891      0.88674113650093     -1.69414324013440
*