33
Coordinates from ORCA-job data/geom_opt_P_BP86/82100/82100 E -922.762779925582
  C           3.90021325096263     -1.35146328152519     -0.34919391837697
  C           2.58575026844082     -1.36055199294520      0.43817338551688
  C           1.88330782752232      0.00345600785359      0.43590399969195
  P           0.29646225153549     -0.01882820145641      1.43995025229663
  C          -0.45423281094778      1.61055076350446      0.99090357372332
  C          -1.81831885166311      1.80999901208287      1.31037289404640
  C          -2.44786493081593      3.03297311872699      1.04368910462654
  C          -1.72177301494806      4.09110877689022      0.46684277464257
  C          -0.36507162386182      3.91025132780993      0.15781916383844
  C           0.26460019858387      2.67926524122311      0.41456256982053
  C          -0.71334630703538     -1.14036318920314      0.35626772716729
  C          -0.98413481800292     -2.44545281231300      0.81745458815963
  C          -1.70052459837481     -3.35243541627483      0.01743375556569
  C          -2.16186197718656     -2.95855752205361     -1.24891122433008
  C          -1.90321578724124     -1.65630741166124     -1.71427767030566
  C          -1.18342049423227     -0.75335563535898     -0.91792760101204
  H           4.38783746862454     -2.34762632472576     -0.33689426651595
  H           3.73021384168344     -1.07444170997957     -1.41085804629653
  H           4.62072081973779     -0.61952258584427      0.07296117608246
  H           2.77438079712906     -1.67504304713582      1.48840116313306
  H           1.90020353858139     -2.12488760927633      0.01178162277800
  H           1.66533044387242      0.32957781241318     -0.60522780470023
  H           2.54560611231302      0.77179074021578      0.89204853406273
  H          -2.39418122643531      0.98738350460518      1.76472835008994
  H          -3.51278621805346      3.16441009015994      1.29087175583395
  H          -2.21398947860886      5.05395710211588      0.26141655108020
  H           0.21227085432707      4.73202519984973     -0.29386926299473
  H           1.32662494235931      2.55955372292095      0.15527982319116
  H          -0.62979509733230     -2.74817425426788      1.81599574227034
  H          -1.90468873141564     -4.36880439751900      0.38846384095416
  H          -2.72871730581191     -3.66528678892940     -1.87443466391263
  H          -2.26698995328321     -1.34314658707841     -2.70537625117257
  H          -0.98861239042261      0.26794534717626     -1.28145663895450
