! RI BP86 def2-SVP D3BJ TIGHTSCF Opt
%pal
nprocs 6
end

* xyz 0 1
C      3.939771   -1.242537   -0.465123
C      2.635732   -1.328774    0.314423
C      1.900392    0.013441    0.314691
P      0.349145   -0.034553    1.322572
C     -0.437501    1.584132    0.991036
C     -1.831938    1.719274    1.109529
C     -2.463907    2.945284    0.882291
C     -1.710314    4.065279    0.547186
C     -0.326246    3.959755    0.448134
C      0.304532    2.731545    0.675138
C     -0.686293   -1.167693    0.332886
C     -1.171843   -2.336732    0.937522
C     -1.960639   -3.238826    0.218923
C     -2.274163   -2.983780   -1.113781
C     -1.799997   -1.827427   -1.728262
C     -1.010438   -0.925680   -1.010098
H      4.451477   -2.210019   -0.455465
H      3.755255   -0.966180   -1.508163
H      4.611766   -0.498725   -0.025273
H      2.856560   -1.643175    1.341980
H      2.013083   -2.112785   -0.132150
H      1.687190    0.320903   -0.715106
H      2.566405    0.768718    0.747088
H     -2.448485    0.864102    1.381277
H     -3.544228    3.021265    0.972666
H     -2.199377    5.019787    0.373002
H      0.268210    4.835467    0.200630
H      1.387841    2.700036    0.607418
H     -0.939579   -2.557266    1.977489
H     -2.329283   -4.139864    0.702000
H     -2.888578   -3.684685   -1.672528
H     -2.045510   -1.623368   -2.767132
H     -0.659043   -0.026920   -1.511905
*