! RIJCOSX M062X def2-TZVP D3ZERO NormalSCF
%pal
nprocs 6
end

* xyz 0 1
  C           4.16342726969649     -0.22697205690910      1.23828551240071
  C           3.54480695561085      0.50187165126478      0.20817581509166
  C           2.14358981452296      0.55858846998105      0.12968149612885
  C           1.35968495454853     -0.12502607674991      1.08048218568358
  C           1.98136017871154     -0.84188730121098      2.12301718652039
  C           3.38143344175009     -0.89379771989563      2.19767216902676
  P          -0.47246618099615     -0.14586868737162      1.05757946962127
  O          -1.08649487545273     -0.33706914095472      2.43399541692975
  C          -0.96970270588553      1.42557013161389      0.25703032757248
  C          -1.01924981940583      1.60669235988052     -1.13962076061496
  C          -1.38786925702661      2.85376869753916     -1.67020536095025
  C          -1.71576036016779      3.91570439361527     -0.81006424181247
  C          -1.68395756606806      3.72983840597721      0.58314116209925
  C          -1.31470318499753      2.48658590915299      1.11853883179496
  C          -0.93176832486102     -1.46667682811229     -0.12651447219324
  C          -0.13028123040704     -1.84516346913795     -1.22219911796733
  C          -0.57055114040458     -2.85350375390537     -2.09511250773555
  C          -1.80315268191955     -3.49025891508035     -1.87085548354829
  C          -2.59425101550519     -3.12561186547181     -0.76738670863206
  C          -2.16003764425295     -2.11771534738307      0.10684111407011
  H           5.26185910868322     -0.26682912347798      1.29972883621210
  H           4.15686292696704      1.03802994212806     -0.53333493618198
  H           1.65978634849613      1.15174538459784     -0.66185610994220
  H           1.34974545970367     -1.33973919387032      2.87504132045853
  H           3.86648133796289     -1.45242964215026      3.01286735947129
  H          -0.78780226928946      0.76750013025750     -1.81374125968677
  H          -1.42874186058410      2.99426712091318     -2.76130646092164
  H          -2.00792810567124      4.89118404361021     -1.22838467961258
  H          -1.95496211329050      4.55767029205531      1.25630591138981
  H          -1.30234462789795      2.31310317633647      2.20577444827272
  H           0.84732937728021     -1.36502002521840     -1.38395533460089
  H           0.05693311214398     -3.15043174566673     -2.94952575156024
  H          -2.14429209563585     -4.28271478456440     -2.55464628394967
  H          -3.55291486402133     -3.63471114938719     -0.58385817618472
  H          -2.75406936233663     -1.83069628240538      0.98841208335063
*