! RIJCOSX M062X def2-TZVP D3ZERO NormalSCF
%pal
nprocs 6
end

* xyz 0 1
  C           4.35174069058687     -1.51322454390768      0.43141649741193
  C           3.09492384184834     -2.38535270607946      0.56577873432253
  C           1.95021169728808     -1.87306454858415     -0.32377296575383
  C           1.62991366719269     -0.39213574119455     -0.04066141451531
  C           2.89672437102116      0.47707308595042     -0.17214377504981
  C           4.03645765515010     -0.03811785314375      0.72020809031004
  P           0.31481639293786      0.23135427142720     -1.23248560508608
  C          -1.18683989942934     -0.82442758145405     -0.75627291109619
  C          -1.52791292697086     -0.90494253113200      0.73959469403382
  C          -2.74446829816446     -1.81184480418847      0.99494816305632
  C          -3.96341373961721     -1.36410774467294      0.17515187610887
  C          -3.62644187444922     -1.28538988864145     -1.32131068989557
  C          -2.41293486131799     -0.37674558171726     -1.57551899902682
  C          -0.16699535428617      1.85156115301672     -0.46630728035646
  C          -0.77841347763262      2.80059123016031     -1.31667914249194
  C          -1.21510026047085      4.04072068738629     -0.82349659844695
  C          -1.02661266927697      4.36435936151815      0.53033035617651
  C          -0.40370474447804      3.43870273196646      1.38478439473854
  C           0.01754788311194      2.19310958219910      0.89222412132296
  H           5.15357976496905     -1.88093530593252      1.10643005884888
  H           4.74831302885037     -1.60391027866122     -0.60540744590459
  H           3.32499879559657     -3.44327672568837      0.31708016889042
  H           2.75794583281840     -2.37988410747618      1.62747707694057
  H           1.04756901945357     -2.50205083649312     -0.17364295389896
  H           2.23303058046455     -1.98273411526853     -1.39591530481971
  H           1.26119242193767     -0.31963091311491      1.00801775770535
  H           2.66169357249360      1.53443791250330      0.07038890292568
  H           3.22506177081374      0.46850669365492     -1.23643952931195
  H           3.74226126046114      0.07177431267737      1.78905201637972
  H           4.94248388813416      0.58935114214035      0.58130529843114
  H          -0.90316926430358     -1.84370465361911     -1.10959567921901
  H          -1.74937251303123      0.11931721087984      1.11323555693292
  H          -0.65621883969259     -1.27106801922764      1.32180922377727
  H          -2.48296207061708     -2.85903466859470      0.71927592401146
  H          -2.98733971967068     -1.82659693057339      2.07906485362365
  H          -4.82044977611103     -2.04986140977305      0.34593184188053
  H          -4.29060575781970     -0.35932181913506      0.52740538076300
  H          -4.50256471801873     -0.92226517257447     -1.89976418011611
  H          -3.40177308118309     -2.30824843102207     -1.70078552775112
  H          -2.67374051365922      0.66781428649670     -1.29171005706098
  H          -2.15924162327067     -0.35321024045786     -2.65686919343088
  H          -0.90469485935692      2.55806344594719     -2.38431080570658
  H          -1.69406742620518      4.76256790062111     -1.50316396043451
  H          -1.35831745616503      5.33967639790405      0.91847094890395
  H          -0.24790113469503      3.68668268949803      2.44640253244910
  H           0.49479072476363      1.47942305638045      1.58046654942818
*