32
Coordinates from ORCA-job data/geom_opt/292611/292611 E -809.329180376361
  C           4.15897618340508     -0.77643072547571     -0.32483210726469
  C           2.80746636800880     -0.33760068618565     -0.88885681097396
  C           1.63896240207796     -1.17116341922108     -0.35708609355414
  P          -0.00560154857354     -0.67867558805922     -1.10048496260054
  C          -1.13599442523890     -1.70613770819840     -0.02034652432331
  C          -2.61611537517084     -1.36517294163542     -0.21059155203232
  C          -3.54290499126113     -2.23803311138516      0.63580136036008
  C          -0.23190810569850      0.99317961500175     -0.32612871558650
  C          -0.51562150823735      2.07977333850198     -1.16783285545354
  C          -0.69528553737712      3.36534031158118     -0.64592343339788
  C          -0.59379821945473      3.58061683024527      0.73024274630433
  C          -0.31190907899217      2.50621133221950      1.58184399746951
  C          -0.13270183588507      1.22516900703594      1.05661665523917
  H           4.98131700397828     -0.15907527442652     -0.72129863154888
  H           4.37644858536502     -1.82759440070320     -0.57907000371493
  H           4.17825969545082     -0.69236202086124      0.77489338513638
  H           2.82484773342480     -0.39756529523266     -1.99146441700460
  H           2.63293473653000      0.72523542366598     -0.64659593020197
  H           1.59601533370915     -1.11360030839718      0.74542144482289
  H           1.78620953318935     -2.23668747369832     -0.60977944465602
  H          -0.85181067057032     -1.60385481307369      1.04242977624195
  H          -0.95054217852447     -2.76054794270045     -0.29328332232890
  H          -2.87857451996306     -1.46586978665729     -1.27858178541957
  H          -2.77670639541857     -0.30262728852293      0.04179857102937
  H          -3.32297551420870     -2.12624297289409      1.71095713830529
  H          -3.42730393553570     -3.30600735728659      0.38487472308373
  H          -4.60090837458022     -1.97067123543540      0.48186073025125
  H          -0.59593337730294      1.91082647182228     -2.24530838389458
  H          -0.91546025799244      4.19985168366967     -1.31690052266596
  H          -0.73398229930580      4.58367019917341      1.14145849148805
  H          -0.23161140630425      2.66899485839909      2.66003466518880
  H           0.08620898045656      0.39705127873413      1.73613381170148
