! RIJCOSX M062X def2-TZVP D3ZERO NormalSCF
%pal
nprocs 6
end

* xyz 0 1
  C           2.29738920432803      1.44488851567289      0.44990166834090
  C           1.65378445849771      0.12386714593170     -0.00209224993080
  C           2.58268507584003     -1.06399568295329      0.29060240819459
  P           0.01076027110784     -0.09354422989086      0.91008496738881
  C          -1.14906329821635      1.14714597749450      0.03982469459980
  C          -1.37399642492346      2.36038055207586      0.95891159882804
  C          -0.77812499781222      1.58903541213541     -1.38273168037169
  C          -0.61079813684263     -1.75491718059715      0.23555379946664
  C          -0.70206821241127     -1.91092634300411     -1.28664839375429
  C          -1.93934865439235     -2.10696857403283      0.92351525751725
  H           1.66184424745667      2.32373223074462      0.22104754857755
  H           3.27455297254350      1.60030042269165     -0.05571656931699
  H           2.47761065402245      1.44219696920796      1.54540140291449
  H           1.47073613759867      0.17051298117050     -1.09779411335788
  H           2.20813901324541     -2.01129548481710     -0.14579520464934
  H           3.59249378418249     -0.88063774219175     -0.13453012857845
  H           2.70395401047891     -1.21852971152604      1.38424199361878
  H          -2.10969931094496      0.58633867224906     -0.01371830771409
  H          -1.69847969250944      2.04948136938776      1.97198308902063
  H          -2.14657241250074      3.03996790179047      0.53865792576555
  H          -0.44282866593099      2.95321162791988      1.07984545487202
  H           0.15244285943502      2.19264231039507     -1.39558991400856
  H          -1.58203400326397      2.22859929585203     -1.80720773255066
  H          -0.63323943176339      0.73592346607893     -2.07185810250248
  H           0.15666314739479     -2.46537963670117      0.61675099034316
  H           0.24702648193825     -1.64969632995840     -1.79673967202545
  H          -0.94793527543348     -2.96019184618876     -1.55941509285193
  H          -1.50311531532304     -1.27090369786369     -1.71045358240171
  H          -1.85849404443949     -2.03597993300280      2.02710329080133
  H          -2.75657601068783     -1.42608702819165      0.60221206117490
  H          -2.25770643067418     -3.13917442987868      0.66465059258987
*