16
Coordinates from ORCA-job data/geom_opt/76001/76001 E -686.141499078422
  C          -0.31233210991648      1.61141772877209     -0.28577147688634
  O          -1.56948696619746      2.22431176891505     -0.10298492557097
  P          -0.17244243943770     -0.01407520415554      0.64127749384273
  C           1.58724247800554     -0.47302620688631      0.17748713658518
  O           2.54127150166913      0.21683589461943      0.95420134448346
  C          -1.09785787655590     -1.12392905944405     -0.55598333981627
  O          -1.17151380467507     -2.45673368522750     -0.10033220903184
  H           0.53975146356052      2.24054368605477      0.04078984718181
  H          -0.19302789983957      1.44272575116077     -1.36984299319387
  H          -1.68502631446944      2.39028646786391      0.84299746576744
  H           1.66256719894602     -1.57585377930181      0.25836781786750
  H           1.78316069112665     -0.21177342078367     -0.87661908314511
  H           2.39056043713400     -0.01095926797254      1.88219290185305
  H          -0.58075243724999     -1.14688345161994     -1.53061848460651
  H          -2.08884653850218     -0.65715920967521     -0.72487368355762
  H          -1.63326838359806     -2.45572701231947      0.74971318822736
