16
Coordinates from ORCA-job data/geom_opt/76001/76001 E -686.133827950781
  C      -0.233815      1.589409     -0.238579
  O      -1.507464      2.218849     -0.220496
  P      -0.176268     -0.014496      0.658466
  C       1.520881     -0.539231      0.184281
  O       2.555214      0.196624      0.822542
  C      -1.129033     -1.037181     -0.536049
  O      -1.148269     -2.423739     -0.226548
  H       0.480833      2.284633      0.213647
  H       0.055577      1.464883     -1.286643
  H      -1.778948      2.226238      0.713391
  H       1.661369     -1.593377      0.444296
  H       1.673246     -0.449772     -0.895753
  H       2.337412      0.179902      1.770269
  H      -0.729770     -0.932950     -1.549665
  H      -2.168145     -0.693390     -0.561031
  H      -1.412821     -2.476401      0.707873
16
Coordinates from ORCA-job data/geom_opt/76001/76001 E -686.139042694960
  C      -0.252676      1.605220     -0.251198
  O      -1.533636      2.220812     -0.177678
  P      -0.173092     -0.014315      0.647362
  C       1.546590     -0.527071      0.181822
  O       2.552407      0.205991      0.871887
  C      -1.128440     -1.064891     -0.544436
  O      -1.158680     -2.439361     -0.176777
  H       0.524158      2.279182      0.158840
  H      -0.024629      1.465197     -1.321443
  H      -1.767076      2.262885      0.761033
  H       1.659359     -1.611826      0.372603
  H       1.718132     -0.370435     -0.896644
  H       2.347045      0.136755      1.815532
  H      -0.681201     -1.010686     -1.551444
  H      -2.156825     -0.663349     -0.628326
  H      -1.471437     -2.474107      0.738869
16
Coordinates from ORCA-job data/geom_opt/76001/76001 E -686.141061839631
  C      -0.275231      1.616254     -0.268164
  O      -1.551187      2.216689     -0.131737
  P      -0.170544     -0.014480      0.637933
  C       1.571479     -0.509659      0.176933
  O       2.540233      0.211202      0.917974
  C      -1.121537     -1.093363     -0.555039
  O      -1.167794     -2.443178     -0.128200
  H       0.551478      2.261717      0.093772
  H      -0.112589      1.462907     -1.350279
  H      -1.736821      2.299110      0.814071
  H       1.657934     -1.609033      0.299408
  H       1.761389     -0.289296     -0.889045
  H       2.347779      0.080570      1.856955
  H      -0.631395     -1.090531     -1.545406
  H      -2.126291     -0.643750     -0.695063
  H      -1.536904     -2.455157      0.765889
16
Coordinates from ORCA-job data/geom_opt/76001/76001 E -686.141392044042
  C      -0.304427      1.614188     -0.289352
  O      -1.561101      2.226070     -0.085907
  P      -0.168700     -0.014032      0.627755
  C       1.588124     -0.479970      0.171035
  O       2.534311      0.204675      0.965379
  C      -1.101368     -1.120262     -0.562823
  O      -1.185097     -2.447524     -0.088273
  H       0.553449      2.243310      0.022331
  H      -0.204123      1.448851     -1.376322
  H      -1.684544      2.343358      0.866553
  H       1.666750     -1.583834      0.236139
  H       1.794894     -0.203788     -0.877664
  H       2.343680      0.006135      1.892957
  H      -0.577539     -1.161497     -1.533866
  H      -2.087423     -0.649369     -0.750193
  H      -1.606886     -2.426310      0.782251
16
Coordinates from ORCA-job data/geom_opt/76001/76001 E -686.141450740847
  C      -0.308904      1.614587     -0.290991
  O      -1.563275      2.227483     -0.087795
  P      -0.169609     -0.013664      0.629056
  C       1.590031     -0.476544      0.173039
  O       2.535505      0.206810      0.966360
  C      -1.100488     -1.123591     -0.562226
  O      -1.180735     -2.450452     -0.090654
  H       0.549830      2.241371      0.022559
  H      -0.207278      1.448500     -1.377343
  H      -1.680153      2.359526      0.863461
  H       1.665648     -1.580312      0.240436
  H       1.796188     -0.202514     -0.875925
  H       2.354424     -0.003021      1.893269
  H      -0.579296     -1.160829     -1.534370
  H      -2.087892     -0.653381     -0.743106
  H      -1.613996     -2.433969      0.774232
16
Coordinates from ORCA-job data/geom_opt/76001/76001 E -686.141491271804
  C      -0.312315      1.613996     -0.288739
  O      -1.567444      2.226431     -0.097398
  P      -0.170593     -0.013919      0.634492
  C       1.590513     -0.473858      0.175574
  O       2.540114      0.212589      0.959079
  C      -1.099150     -1.125478     -0.559371
  O      -1.176000     -2.454825     -0.096912
  H       0.541872      2.241132      0.036048
  H      -0.197871      1.448337     -1.373606
  H      -1.683282      2.378849      0.850878
  H       1.663954     -1.576928      0.253858
  H       1.791296     -0.210090     -0.876790
  H       2.376939     -0.008300      1.886693
  H      -0.582597     -1.153834     -1.533928
  H      -2.089021     -0.656741     -0.729119
  H      -1.626416     -2.447359      0.759239
16
Coordinates from ORCA-job data/geom_opt/76001/76001 E -686.141496126160
  C      -0.312592      1.612975     -0.287613
  O      -1.568421      2.225974     -0.100314
  P      -0.171410     -0.013941      0.637332
  C       1.589250     -0.473285      0.176484
  O       2.541070      0.214414      0.956814
  C      -1.098578     -1.125036     -0.557908
  O      -1.173886     -2.456069     -0.098970
  H       0.540550      2.240689      0.038941
  H      -0.195216      1.446289     -1.372107
  H      -1.684172      2.384518      0.846951
  H       1.662913     -1.576254      0.256827
  H       1.787916     -0.211489     -0.876874
  H       2.383418     -0.009468      1.884639
  H      -0.582522     -1.150373     -1.532901
  H      -2.089188     -0.657174     -0.725886
  H      -1.629133     -2.451770      0.754586
16
Coordinates from ORCA-job data/geom_opt/76001/76001 E -686.141498651465
  C      -0.312391      1.611713     -0.286044
  O      -1.569288      2.224774     -0.102767
  P      -0.172222     -0.014090      0.640519
  C       1.587640     -0.473077      0.177292
  O       2.541510      0.216454      0.954323
  C      -1.097973     -1.124163     -0.556364
  O      -1.172104     -2.456777     -0.100406
  H       0.539783      2.240415      0.041174
  H      -0.192901      1.443631     -1.370171
  H      -1.685201      2.389066      0.843461
  H       1.662353     -1.575930      0.258714
  H       1.783994     -0.212340     -0.876841
  H       2.389395     -0.010111      1.882382
  H      -0.581334     -1.147341     -1.531211
  H      -2.088912     -0.657001     -0.724524
  H      -1.632349     -2.455221      0.750464
16
Coordinates from ORCA-job data/geom_opt/76001/76001 E -686.141499078422
  C      -0.312332      1.611418     -0.285771
  O      -1.569487      2.224312     -0.102985
  P      -0.172442     -0.014075      0.641277
  C       1.587242     -0.473026      0.177487
  O       2.541272      0.216836      0.954201
  C      -1.097858     -1.123929     -0.555983
  O      -1.171514     -2.456734     -0.100332
  H       0.539751      2.240544      0.040790
  H      -0.193028      1.442726     -1.369843
  H      -1.685026      2.390286      0.842997
  H       1.662567     -1.575854      0.258368
  H       1.783161     -0.211773     -0.876619
  H       2.390560     -0.010959      1.882193
  H      -0.580752     -1.146883     -1.530618
  H      -2.088847     -0.657159     -0.724874
  H      -1.633268     -2.455727      0.749713
