! RIJCOSX M062X def2-TZVP D3ZERO NormalSCF
%pal
nprocs 6
end

* xyz 0 1
  C          -0.66766435728900     -4.26607933236321      0.53676542826039
  C          -1.14317435478544     -3.95261109387767     -0.74854191848177
  C          -0.93131840114422     -2.67333864133832     -1.28466151498591
  C          -0.24529604497665     -1.70088435374539     -0.52927004285834
  C           0.24667975835677     -2.02086771029054      0.75212104242341
  C           0.03017960685691     -3.30219769405580      1.28451295418263
  P          -0.04670840470804     -0.05518585051538     -1.30777958798704
  O          -0.05948238328867     -0.10252191624860     -2.82577411376273
  C          -1.36962741864958      0.99521645001621     -0.60004576927342
  C          -1.93580162359582      0.78330628245523      0.67298480532856
  C          -2.92635520388824      1.65665724957929      1.15145970676797
  C          -3.35810380424055      2.73353092475947      0.35853729785930
  C          -2.80641572097705      2.93408492412709     -0.91898909578374
  C          -1.81561320308365      2.06590632817253     -1.40152923879196
  C           1.51617269421524      0.62168858496679     -0.63030351661401
  C           2.66621276531220      0.47386199878496     -1.43122594542491
  C           3.90892252526986      0.94360377344622     -0.98333075822893
  C           3.99014931998469      1.56944826559149      0.27285871465336
  C           2.85115900414130      1.74291836968373      1.07749782057686
  C           1.61289947685096      1.26961879675411      0.61691773088256
  Br          5.67656803508076      2.20927960332526      0.89195934350588
  H          -0.83306347196034     -5.27104734876725      0.95444311521960
  H          -1.67740513558837     -4.71244986871662     -1.33934373191897
  H          -1.27784925390786     -2.41277959712538     -2.29672534370743
  H           0.81576576838188     -1.27507144147665      1.32826863531296
  H           0.41692065970731     -3.55237841292647      2.28427465933548
  H          -1.61632918804142     -0.07495461493964      1.28424813454616
  H          -3.37006718589540      1.48958792475808      2.14491533234785
  H          -4.13670875879004      3.41485679516368      0.73452052461507
  H          -3.15546780424239      3.76925466659626     -1.54545505886324
  H          -1.38449206262253      2.19395081711162     -2.40652243446340
  H           2.57048977804315     -0.00222807372085     -2.41953241207909
  H           4.80908112827963      0.83174261247900     -1.60418080086792
  H           2.93259556848038      2.25078122906380      2.04883599216662
  H           0.71314669271422      1.42530135327297      1.23215504610814
*