25
Coordinates from ORCA-job data/geom_opt_P_BP86/521585/521585 E -1029.135288802145
  C          -2.23066715554733     -3.11525515646854      0.31578004424534
  C          -1.41536062553906     -2.67875408280777      1.33733317387739
  O          -0.74777344476846     -1.55149152621858      0.97190090620429
  C          -1.13094402124557     -1.24001739755905     -0.31468755660718
  C          -2.04649194255005     -2.18057948331887     -0.75660677152527
  P          -0.46670684985604      0.20995608503711     -1.19573418475870
  C           1.33021639657094     -0.06298342730904     -1.06694726192897
  C           2.28573074274086     -0.04144360770427     -2.06930569090449
  C           3.54772958245349     -0.31478994443590     -1.44464087651874
  C           3.27350251683710     -0.48559114429576     -0.10509392319681
  O           1.94332941040709     -0.33654981602325      0.13655669453535
  C          -0.73239093601662      1.54205120710901      0.01872004093846
  C          -1.39696648913467      2.74609938593140     -0.14470891406699
  C          -1.32269945161177      3.43417711070243      1.11172019021128
  C          -0.61650532484308      2.60233585542842      1.95324133023156
  O          -0.25520149710602      1.46025148740471      1.30899140136594
  H          -2.88250797363978     -3.99584027111482      0.33058617779038
  H          -1.20991229283208     -3.04883644044276      2.34743655395063
  H          -2.52663816029905     -2.18965240879348     -1.74156139815104
  H           2.09233984325308      0.14966707482895     -3.13082146794046
  H           4.53108745447301     -0.37839316801726     -1.92371459063117
  H           3.89504116958374     -0.71032692112115      0.76821451438158
  H          -1.87997676367082      3.08806235700515     -1.06694031379836
  H          -1.73666852484084      4.41756105081129      1.36099493082201
  H          -0.30156666281806      2.68034518137202      2.99928699147396
