28
Coordinates from ORCA-job data/geom_opt_P_BP86/342156/342156 E -915.494152659970
  C           3.17896851324540     -1.18395060802024     -0.69076934015513
  C           2.98886205907192     -1.06887254153711      0.69533783975342
  C           1.76175392958731     -0.60481949173433      1.19940281222683
  C           0.71233530917175     -0.25129874126695      0.32488128412032
  C           0.91580984724251     -0.37144438572477     -1.06796678558033
  C           2.14016351793157     -0.83439399379180     -1.57240462425017
  P          -0.87349597172309      0.35177095296410      1.07925231470252
  C          -2.10210431421787     -0.73790720978657      0.16528732949627
  C          -1.93938523116783     -2.21326310883763      0.58195530868174
  C          -2.90443357273403     -3.09383994141525     -0.07983001543068
  N          -3.68644722484317     -3.77649536221721     -0.62257640009253
  C          -1.12662411166922      1.92866664647777      0.08810017424161
  C          -0.02902955842993      2.96130866996669      0.41317672257777
  C          -0.21699982712409      4.22570918049619     -0.30139473075983
  N          -0.38928698678191      5.22674286969954     -0.88482896721566
  H           4.13896065479564     -1.54721617438534     -1.08813957058603
  H           3.79885088611671     -1.34148213431314      1.38904113345554
  H           1.60920972334346     -0.51331747011119      2.28678180167882
  H           0.11275689696656     -0.10222686799100     -1.77283342082954
  H           2.28601848412749     -0.92347640482848     -2.65985563122093
  H          -1.98896852576451     -0.63683088548845     -0.93485915107234
  H          -3.11972971024524     -0.37715722881686      0.42347327718643
  H          -0.91462862296479     -2.56848971180434      0.33729082098911
  H          -2.05321976970214     -2.32211196484385      1.68235568166983
  H          -1.14434336350964      1.72013806827748     -1.00252827265095
  H          -2.12442811967661      2.33221527145270      0.35981533119434
  H           0.97005523627406      2.55270413525643      0.14699618959443
  H          -0.00061814732030      3.16933743232364      1.50484088827514
