! RI BP86 def2-SVP D3BJ TIGHTSCF Opt
%pal
nprocs 6
end

* xyz 0 1
C      3.229864   -1.206882   -0.699023
C      3.025283   -1.089084    0.672654
C      1.801058   -0.624707    1.160035
C      0.764748   -0.271789    0.282921
C      0.986304   -0.396013   -1.095072
C      2.211133   -0.860614   -1.582529
P     -0.798797    0.324134    0.996285
C     -2.053101   -0.750605    0.152697
C     -1.985436   -2.203158    0.622394
C     -3.025597   -3.002306   -0.037763
N     -3.850956   -3.623938   -0.565420
C     -1.078164    1.906468    0.069916
C     -0.078424    2.994167    0.460470
C     -0.368821    4.238408   -0.263349
N     -0.607394    5.215990   -0.840828
H      4.182102   -1.568121   -1.079188
H      3.818314   -1.358468    1.365805
H      1.668821   -0.542619    2.237491
H      0.216303   -0.135967   -1.816759
H      2.369389   -0.952077   -2.654497
H     -1.939672   -0.696988   -0.936173
H     -3.045019   -0.339575    0.379150
H     -1.004089   -2.638344    0.400130
H     -2.119087   -2.260248    1.709548
H     -1.048201    1.732610   -1.011866
H     -2.095941    2.247018    0.298566
H      0.946985    2.679065    0.234465
H     -0.121603    3.183642    1.539942
*