38
Coordinates from ORCA-job data/geom_opt_PO_BP86/87021/87021 E -1299.461240787657
  C          -2.32465276533075     -3.76573182804515      1.03216094219342
  C          -1.53744886041848     -3.96165598740371     -0.11611966092998
  C          -0.85573883755635     -2.87999859350583     -0.69423215676585
  C          -0.95436003833848     -1.59762040841529     -0.11698431647732
  C          -1.75735518191212     -1.39854919654178      1.02418069145584
  C          -2.43798009374966     -2.48429328438450      1.59874719463808
  P          -0.01732762500728     -0.25707103412805     -0.94943594597630
  O           0.18800727781267     -0.55947273829897     -2.42337051539429
  C          -0.97292399889675      1.25771793360837     -0.58633315577160
  C          -0.80701281131937      1.99749513635545      0.59990572947374
  C          -1.59873625332368      3.13447319386122      0.82969312378274
  C          -2.54846250260492      3.53512258845943     -0.12574825272232
  C          -2.70381999887419      2.80237343509181     -1.31589737428439
  C          -1.91641031892328      1.66472718373953     -1.54938468355320
  C           1.55683923213834     -0.13015064345603      0.01864858771798
  C           1.69407347814504     -0.82322390154578      1.23865751368587
  C           2.92268697832696     -0.85678040614090      1.91852602814579
  C           4.04845206060156     -0.22849887652428      1.36445834723982
  C           3.93368335491752      0.44496662445925      0.14060364617085
  C           2.69502877725962      0.52438692299279     -0.52372089560495
  C           2.67972620238905      1.28471725190354     -1.81831111548711
  O           3.60528531330257      1.31512463822348     -2.60783941732081
  O           1.53448305140883      1.98986554901496     -1.97856601732231
  H          -2.86161999477690     -4.61469140678822      1.48267346865258
  H          -1.46041065520500     -4.96276826038833     -0.56755211232365
  H          -0.25133744541454     -3.00308949137531     -1.60615471180074
  H          -1.85938853984792     -0.39171791309894      1.45761812317940
  H          -3.06689719939826     -2.32770646596766      2.48861131351947
  H          -0.04579156456480      1.69436911588602      1.33580717281561
  H          -1.46755195710961      3.71636851965346      1.75496438505056
  H          -3.16587126573860      4.42852319720849      0.05460232552316
  H          -3.44098357017404      3.12326830231941     -2.06805396174766
  H          -2.00910266862298      1.08665102728718     -2.48202581247642
  H           0.83111823223834     -1.36297384379023      1.65517456382256
  H           3.00161683172242     -1.39629548665357      2.87464505124955
  H           5.01941663965536     -0.27009164672217      1.88068129058460
  H           4.80444057138030      0.92893234672458     -0.32587693987505
  H           1.54632614580937      2.34329544638574     -2.89475245306769
