! RIJCOSX M062X def2-TZVP D3ZERO NormalSCF
%pal
nprocs 6
end

* xyz 0 1
  C           5.17623912403149     -1.59762300596582      0.57097875380319
  C           4.20458565833484     -2.49719248113097      1.04018844776496
  C           2.94394377954967     -2.02521374920676      1.43933133548637
  C           2.63489570093337     -0.64969087461306      1.38019023773052
  C           3.62062311990657      0.24925691562709      0.91439805161055
  C           4.87853105288707     -0.22577267163876      0.51073161958785
  C           1.26955165660959     -0.15890774120441      1.80888425145538
  P           0.51155314306930      1.07041873018790      0.64917666936786
  O           1.30103282528324      2.36842078036296      0.54374014096571
  C           0.32127278985162      0.22224238635808     -0.99055734118057
  C          -0.43133627446447     -1.08054908818685     -0.94999062913417
  C           0.24710684367095     -2.29800005469986     -0.72538033817573
  C          -0.46011760843830     -3.50579092700685     -0.62109652514487
  C          -1.85983485043359     -3.51933791268970     -0.74512244858050
  C          -2.54347427318495     -2.31634310246196     -0.99016398136690
  C          -1.83527494686017     -1.10893544716141     -1.09398524689764
  C          -1.19298773971658      1.30602988954999      1.33559474469091
  C          -2.09798961110413      2.13952597689849      0.45575914234163
  C          -3.42077029203720      1.72083165620487      0.19862435305084
  C          -4.26926094677866      2.48112120341526     -0.62210533666335
  C          -3.80436308799156      3.67301481689304     -1.20218096851808
  C          -2.48962010093062      4.09964782315285     -0.94960132421122
  C          -1.64103916766150      3.34400090537447     -0.12523479814511
  H           6.16411359712065     -1.96561452379783      0.25406944635679
  H           4.42760647876671     -3.57395290065245      1.09510117082401
  H           2.18296205214308     -2.73361227589459      1.80368246855511
  H           3.37454333686081      1.32063697277356      0.85198010551750
  H           5.63412274485488      0.48617094710120      0.14407344810123
  H           0.56851846990987     -1.00687270208315      1.94709604717116
  H           1.32773349647873      0.38929113005252      2.77539126548518
  H          -0.17347861088538      0.97749748441238     -1.63485261209599
  H           1.36084227776253      0.09790046113614     -1.35666229067525
  H           1.34372067246935     -2.29390386177088     -0.63400471175922
  H           0.08846348594277     -4.44467693598441     -0.44806006807013
  H          -2.41499001330799     -4.46630267312414     -0.66360987514016
  H          -3.63817857503639     -2.31725048169217     -1.10852429164851
  H          -2.37542451284481     -0.17137718110203     -1.29473653622770
  H          -1.01601357934130      1.80673918820442      2.31332215506042
  H          -1.64284220077758      0.31440949024102      1.54563313953957
  H          -3.78830165682472      0.78594303278730      0.65091418972343
  H          -5.29891385300718      2.13923796072756     -0.80944159849759
  H          -4.46665286371666      4.26894307693560     -1.84868354139233
  H          -2.11729748525875      5.03275904802424     -1.40003433733174
  H          -0.60379805583463      3.66288271564713      0.06149761666660
*