31
Coordinates from ORCA-job data/geom_opt/80969/80969 E -696.338881400576
  C       2.300487      1.432693      0.477796
  C       1.637389      0.133425      0.006170
  C       2.586026     -1.028947      0.320931
  P      -0.011473     -0.092669      0.816367
  C      -1.155147      1.124467      0.017418
  C      -1.336109      2.342477      0.931641
  C      -0.784790      1.588438     -1.388113
  C      -0.606500     -1.743417      0.228537
  C      -0.759655     -1.892707     -1.279570
  C      -1.914122     -2.127719      0.929578
  H       1.705784      2.315667      0.229021
  H       3.278000      1.561243     -0.000862
  H       2.459769      1.435679      1.562662
  H       1.520318      0.177844     -1.080957
  H       2.232118     -1.969734     -0.112252
  H       3.579459     -0.842294     -0.102850
  H       2.706691     -1.178201      1.400149
  H      -2.138052      0.644345     -0.047706
  H      -1.692456      2.046990      1.925401
  H      -2.077501      3.031769      0.511906
  H      -0.403466      2.900756      1.064723
  H       0.119682      2.204034     -1.396690
  H      -1.590610      2.202590     -1.806783
  H      -0.625533      0.756146     -2.077730
  H       0.140041     -2.475144      0.558375
  H       0.155581     -1.623924     -1.815527
  H      -0.988736     -2.933640     -1.535690
  H      -1.579604     -1.281218     -1.669626
  H      -1.812091     -2.085445      2.020112
  H      -2.743497     -1.471199      0.645517
  H      -2.202001     -3.152308      0.668050
31
Coordinates from ORCA-job data/geom_opt/80969/80969 E -696.342316301326
  C       2.285697      1.442471      0.446835
  C       1.627867      0.126371      0.006164
  C       2.569882     -1.049458      0.303716
  P      -0.000354     -0.094231      0.882197
  C      -1.144278      1.124564      0.045767
  C      -1.351766      2.348047      0.955321
  C      -0.771134      1.572675     -1.375029
  C      -0.602319     -1.738810      0.241882
  C      -0.708509     -1.888115     -1.281420
  C      -1.930271     -2.108323      0.919316
  H       1.670859      2.322910      0.204501
  H       3.257313      1.575052     -0.057716
  H       2.466075      1.453015      1.533810
  H       1.473793      0.164091     -1.086274
  H       2.196264     -1.997397     -0.114138
  H       3.560754     -0.868780     -0.144093
  H       2.711488     -1.190146      1.388117
  H      -2.121838      0.615964     -0.018051
  H      -1.707759      2.051452      1.953899
  H      -2.101137      3.032098      0.520945
  H      -0.419812      2.919228      1.091940
  H       0.138713      2.192521     -1.385260
  H      -1.580748      2.185981     -1.806900
  H      -0.605297      0.727427     -2.057360
  H       0.141400     -2.472061      0.597104
  H       0.231863     -1.628715     -1.792534
  H      -0.949795     -2.930877     -1.552929
  H      -1.508041     -1.254834     -1.696261
  H      -1.850147     -2.065383      2.016991
  H      -2.747976     -1.433841      0.615857
  H      -2.230783     -3.132898      0.643599
31
Coordinates from ORCA-job data/geom_opt/80969/80969 E -696.343080909664
  C       2.306831      1.436747      0.443114
  C       1.645544      0.124531     -0.004538
  C       2.570061     -1.066740      0.286032
  P       0.009474     -0.085190      0.889523
  C      -1.137255      1.142948      0.025635
  C      -1.403143      2.340789      0.954988
  C      -0.747263      1.626506     -1.381406
  C      -0.605037     -1.741919      0.243832
  C      -0.719588     -1.920544     -1.277563
  C      -1.923712     -2.103764      0.944648
  H       1.692140      2.320804      0.210012
  H       3.281047      1.569635     -0.060488
  H       2.484779      1.434882      1.532138
  H       1.484533      0.171869     -1.096403
  H       2.189918     -2.007947     -0.142098
  H       3.569120     -0.888616     -0.149279
  H       2.698383     -1.217563      1.372538
  H      -2.094561      0.597401     -0.068251
  H      -1.769960      2.012324      1.940510
  H      -2.158435      3.016946      0.514474
  H      -0.487067      2.932045      1.125227
  H       0.152027      2.263257     -1.359000
  H      -1.561339      2.236486     -1.813450
  H      -0.552468      0.799206     -2.077963
  H       0.152464     -2.458905      0.609356
  H       0.215389     -1.664921     -1.801886
  H      -0.960919     -2.969723     -1.528896
  H      -1.525210     -1.295520     -1.696214
  H      -1.830340     -2.039020      2.041134
  H      -2.745652     -1.433061      0.638011
  H      -2.229759     -3.132945      0.686262
31
Coordinates from ORCA-job data/geom_opt/80969/80969 E -696.342586531824
  C       2.294248      1.447333      0.526644
  C       1.649494      0.144768      0.031978
  C       2.575708     -1.051882      0.286796
  P       0.004911     -0.098122      0.930821
  C      -1.156842      1.142626      0.065103
  C      -1.288002      2.409122      0.927541
  C      -0.876927      1.503127     -1.401558
  C      -0.603185     -1.746334      0.220562
  C      -0.679966     -1.894870     -1.304116
  C      -1.935598     -2.116528      0.889048
  H       1.664920      2.329437      0.331404
  H       3.266229      1.612650      0.028221
  H       2.472274      1.402826      1.614941
  H       1.482983      0.228786     -1.055737
  H       2.207837     -1.977838     -0.180574
  H       3.580878     -0.848724     -0.123494
  H       2.687641     -1.242063      1.369145
  H      -2.133787      0.625002      0.097046
  H      -1.570854      2.163797      1.963264
  H      -2.048193      3.092701      0.508482
  H      -0.333315      2.962221      0.971654
  H       0.055108      2.081588     -1.505381
  H      -1.693148      2.133597     -1.797381
  H      -0.796599      0.618987     -2.049461
  H       0.154893     -2.458069      0.596030
  H       0.268486     -1.635080     -1.800337
  H      -0.925414     -2.935868     -1.580966
  H      -1.468912     -1.251466     -1.727925
  H      -1.864446     -2.065818      1.987394
  H      -2.747633     -1.437103      0.574696
  H      -2.242785     -3.138808      0.606158
31
Coordinates from ORCA-job data/geom_opt/80969/80969 E -696.343341405674
  C       2.284936      1.445692      0.433488
  C       1.648643      0.118401     -0.001364
  C       2.590523     -1.054296      0.300357
  P       0.011051     -0.102187      0.907040
  C      -1.142719      1.143413      0.052236
  C      -1.354219      2.358957      0.968715
  C      -0.789426      1.590722     -1.371710
  C      -0.613664     -1.754055      0.233422
  C      -0.691414     -1.925692     -1.286390
  C      -1.951428     -2.098088      0.903423
  H       1.648551      2.312431      0.199659
  H       3.252729      1.596677     -0.074857
  H       2.467645      1.453260      1.520902
  H       1.477051      0.153114     -1.090327
  H       2.230704     -2.002517     -0.125845
  H       3.590117     -0.859351     -0.124045
  H       2.711379     -1.197386      1.387904
  H      -2.104527      0.601963      0.003390
  H      -1.683903      2.053463      1.973468
  H      -2.112191      3.040993      0.546173
  H      -0.422050      2.935580      1.090706
  H       0.128283      2.199640     -1.389119
  H      -1.599734      2.218212     -1.781445
  H      -0.643786      0.746787     -2.059279
  H       0.133305     -2.469662      0.620249
  H       0.258152     -1.679222     -1.786042
  H      -0.940815     -2.969548     -1.544585
  H      -1.477778     -1.288476     -1.721101
  H      -1.882810     -2.030565      2.000313
  H      -2.755192     -1.416812      0.575864
  H      -2.267408     -3.121451      0.638797
31
Coordinates from ORCA-job data/geom_opt/80969/80969 E -696.343269380039
  C       2.322347      1.429488      0.501174
  C       1.647050      0.143158      0.005523
  C       2.553456     -1.068426      0.256565
  P       0.002160     -0.074073      0.895901
  C      -1.148831      1.151192      0.015362
  C      -1.397563      2.365857      0.923030
  C      -0.765232      1.597986     -1.400461
  C      -0.600930     -1.739668      0.243328
  C      -0.725709     -1.906657     -1.273328
  C      -1.905669     -2.121972      0.955533
  H       1.714526      2.325109      0.304034
  H       3.296001      1.573162      0.002358
  H       2.502281      1.384046      1.587986
  H       1.478784      0.230655     -1.081087
  H       2.164439     -1.986470     -0.209683
  H       3.558345     -0.887029     -0.160825
  H       2.670792     -1.261348      1.336537
  H      -2.101799      0.597440     -0.054371
  H      -1.746194      2.058858      1.920911
  H      -2.156355      3.035212      0.482032
  H      -0.477856      2.957198      1.064191
  H       0.145411      2.217229     -1.398619
  H      -1.572287      2.214335     -1.833143
  H      -0.592746      0.753210     -2.080822
  H       0.177244     -2.436686      0.601723
  H       0.199024     -1.631608     -1.803569
  H      -0.953811     -2.956396     -1.527895
  H      -1.544413     -1.291167     -1.678435
  H      -1.803435     -2.054306      2.049933
  H      -2.738939     -1.464293      0.655653
  H      -2.200086     -3.154039      0.700464
31
Coordinates from ORCA-job data/geom_opt/80969/80969 E -696.343387794036
  C       2.296139      1.440761      0.456140
  C       1.649082      0.124806      0.003239
  C       2.579895     -1.058965      0.294049
  P       0.006451     -0.093271      0.901794
  C      -1.144444      1.146339      0.036378
  C      -1.369067      2.361542      0.949031
  C      -0.775135      1.590658     -1.383567
  C      -0.610596     -1.749123      0.232964
  C      -0.716713     -1.907738     -1.285714
  C      -1.929866     -2.115276      0.926245
  H       1.667981      2.315684      0.231060
  H       3.266302      1.589904     -0.047974
  H       2.477026      1.434141      1.543719
  H       1.478681      0.173335     -1.085124
  H       2.212428     -1.998852     -0.144553
  H       3.582466     -0.868897     -0.125230
  H       2.697252     -1.215786      1.379923
  H      -2.102399      0.599572     -0.020786
  H      -1.705785      2.056322      1.951494
  H      -2.127247      3.039134      0.519763
  H      -0.441390      2.943552      1.077624
  H       0.143380      2.198139     -1.393130
  H      -1.580245      2.218201     -1.803487
  H      -0.623140      0.744836     -2.067503
  H       0.154240     -2.456028      0.600153
  H       0.219429     -1.645060     -1.801815
  H      -0.958302     -2.952444     -1.548161
  H      -1.519477     -1.276806     -1.699171
  H      -1.841367     -2.052749      2.022063
  H      -2.749221     -1.444139      0.617604
  H      -2.236357     -3.141791      0.662969
31
Coordinates from ORCA-job data/geom_opt/80969/80969 E -696.343384044334
  C       2.300760      1.439275      0.455796
  C       1.648112      0.127668     -0.001374
  C       2.577228     -1.060047      0.277596
  P       0.009257     -0.090966      0.904766
  C      -1.148843      1.145840      0.043446
  C      -1.371840      2.360915      0.956183
  C      -0.786961      1.589447     -1.378448
  C      -0.608256     -1.749326      0.241512
  C      -0.688529     -1.921586     -1.277062
  C      -1.942240     -2.098238      0.914756
  H       1.672938      2.316844      0.240472
  H       3.267996      1.589899     -0.053452
  H       2.488707      1.425270      1.542081
  H       1.470925      0.182730     -1.088265
  H       2.205492     -1.996049     -0.165583
  H       3.578516     -0.869914     -0.144688
  H       2.699088     -1.224232      1.361859
  H      -2.105139      0.595484     -0.008139
  H      -1.701943      2.055718      1.960820
  H      -2.134366      3.036072      0.530786
  H      -0.445144      2.945746      1.078958
  H       0.131552      2.196639     -1.393388
  H      -1.594081      2.217012     -1.794471
  H      -0.638821      0.743298     -2.062592
  H       0.145181     -2.457169      0.629626
  H       0.258978     -1.672002     -1.778673
  H      -0.934590     -2.966611     -1.533972
  H      -1.478175     -1.287841     -1.710855
  H      -1.872647     -2.025855      2.011264
  H      -2.750372     -1.423366      0.585199
  H      -2.252784     -3.124659      0.655845
31
Coordinates from ORCA-job data/geom_opt/80969/80969 E -696.343393630914
  C       2.297708      1.440058      0.455244
  C       1.648906      0.125390      0.001456
  C       2.578927     -1.059613      0.288633
  P       0.007394     -0.092161      0.902705
  C      -1.146717      1.146543      0.038911
  C      -1.370602      2.361294      0.951692
  C      -0.779361      1.590218     -1.381524
  C      -0.609639     -1.749379      0.236212
  C      -0.705928     -1.911974     -1.282524
  C      -1.934281     -2.109296      0.921858
  H       1.668738      2.315571      0.234607
  H       3.266101      1.590656     -0.051867
  H       2.482680      1.430828      1.542094
  H       1.474775      0.175468     -1.086195
  H       2.210125     -1.998089     -0.151867
  H       3.581394     -0.869823     -0.131048
  H       2.697515     -1.218999      1.373991
  H      -2.103395      0.597243     -0.015767
  H      -1.703755      2.056029      1.955322
  H      -2.131287      3.037634      0.524763
  H      -0.443559      2.945042      1.077199
  H       0.140860      2.194950     -1.393417
  H      -1.583499      2.220234     -1.799740
  H      -0.631349      0.744030     -2.065744
  H       0.151698     -2.455695      0.611572
  H       0.234748     -1.654634     -1.792999
  H      -0.949992     -2.956459     -1.543739
  H      -1.503323     -1.279180     -1.703358
  H      -1.853141     -2.043043      2.018008
  H      -2.749562     -1.436946      0.605085
  H      -2.242176     -3.135898      0.660436
31
Coordinates from ORCA-job data/geom_opt/80969/80969 E -696.343394178307
  C       2.297898      1.439863      0.455516
  C       1.648948      0.125403      0.001556
  C       2.578614     -1.059817      0.288645
  P       0.007242     -0.091765      0.902462
  C      -1.146939      1.146815      0.038331
  C      -1.371276      2.361310      0.951196
  C      -0.778809      1.590583     -1.381844
  C      -0.609533     -1.749315      0.236340
  C      -0.706428     -1.911525     -1.282413
  C      -1.933652     -2.109853      0.922499
  H       1.668641      2.315438      0.235897
  H       3.265880      1.590994     -0.052243
  H       2.483784      1.430079      1.542195
  H       1.474401      0.175544     -1.086020
  H       2.209923     -1.998010     -0.152563
  H       3.581380     -0.870106     -0.130397
  H       2.696730     -1.219761      1.373975
  H      -2.103268      0.596935     -0.016605
  H      -1.704224      2.055907      1.954863
  H      -2.132370      3.037383      0.524507
  H      -0.444513      2.945528      1.076646
  H       0.142275      2.193993     -1.393513
  H      -1.581909      2.221926     -1.800109
  H      -0.631832      0.744395     -2.066314
  H       0.152471     -2.455034      0.611421
  H       0.234070     -1.654228     -1.793257
  H      -0.950750     -2.955908     -1.543936
  H      -1.503978     -1.278613     -1.702775
  H      -1.852171     -2.043600      2.018631
  H      -2.749399     -1.437932      0.606001
  H      -2.241202     -3.136632      0.661307
