31
Coordinates from ORCA-job data/geom_opt/80969/80969 E -696.343394178307
  C           2.29789770763823      1.43986258127321      0.45551597144488
  C           1.64894815427408      0.12540335922209      0.00155625868133
  C           2.57861445690355     -1.05981650412831      0.28864454774436
  P           0.00724151254326     -0.09176541583894      0.90246217845756
  C          -1.14693904110447      1.14681509095411      0.03833060917785
  C          -1.37127632619692      2.36130962319659      0.95119586727922
  C          -0.77880939475442      1.59058263057572     -1.38184435227282
  C          -0.60953293006885     -1.74931469808075      0.23634032801024
  C          -0.70642760598280     -1.91152535506799     -1.28241251079978
  C          -1.93365154177171     -2.10985294754675      0.92249852054682
  H           1.66864097482540      2.31543803697604      0.23589682466948
  H           3.26587989258738      1.59099370657372     -0.05224292744729
  H           2.48378383445392      1.43007857523457      1.54219459789231
  H           1.47440069559163      0.17554380463575     -1.08602003605525
  H           2.20992349668159     -1.99800992528201     -0.15256282608026
  H           3.58138014437711     -0.87010555400368     -0.13039673615839
  H           2.69672984483053     -1.21976080320741      1.37397464122703
  H          -2.10326832885615      0.59693548356950     -0.01660535082560
  H          -1.70422445624319      2.05590675280925      1.95486321360694
  H          -2.13237042492263      3.03738307610494      0.52450738369933
  H          -0.44451295007390      2.94552797538166      1.07664605398407
  H           0.14227476795297      2.19399270392958     -1.39351293117459
  H          -1.58190911029137      2.22192644545952     -1.80010933510401
  H          -0.63183185390170      0.74439475400638     -2.06631417538980
  H           0.15247081438743     -2.45503366213332      0.61142069155594
  H           0.23406958923332     -1.65422757412604     -1.79325702070646
  H          -0.95075022455534     -2.95590787627223     -1.54393604115837
  H          -1.50397756294342     -1.27861290182411     -1.70277530696268
  H          -1.85217089145157     -2.04360018005514      2.01863147374167
  H          -2.74939915825002     -1.43793225877883      0.60600106739035
  H          -2.24120208491197     -3.13663194355712      0.66130732102590
