33
Coordinates from ORCA-job data/geom_opt/82100/82100 E -922.306680856895
  C       3.939771     -1.242537     -0.465123
  C       2.635732     -1.328774      0.314423
  C       1.900392      0.013441      0.314691
  P       0.349145     -0.034553      1.322572
  C      -0.437501      1.584132      0.991036
  C      -1.831938      1.719274      1.109529
  C      -2.463907      2.945284      0.882291
  C      -1.710314      4.065279      0.547186
  C      -0.326246      3.959755      0.448134
  C       0.304532      2.731545      0.675138
  C      -0.686293     -1.167693      0.332886
  C      -1.171843     -2.336732      0.937522
  C      -1.960639     -3.238826      0.218923
  C      -2.274163     -2.983780     -1.113781
  C      -1.799997     -1.827427     -1.728262
  C      -1.010438     -0.925680     -1.010098
  H       4.451477     -2.210019     -0.455465
  H       3.755255     -0.966180     -1.508163
  H       4.611766     -0.498725     -0.025273
  H       2.856560     -1.643175      1.341980
  H       2.013083     -2.112785     -0.132150
  H       1.687190      0.320903     -0.715106
  H       2.566405      0.768718      0.747088
  H      -2.448485      0.864102      1.381277
  H      -3.544228      3.021265      0.972666
  H      -2.199377      5.019787      0.373002
  H       0.268210      4.835467      0.200630
  H       1.387841      2.700036      0.607418
  H      -0.939579     -2.557266      1.977489
  H      -2.329283     -4.139864      0.702000
  H      -2.888578     -3.684685     -1.672528
  H      -2.045510     -1.623368     -2.767132
  H      -0.659043     -0.026920     -1.511905
33
Coordinates from ORCA-job data/geom_opt/82100/82100 E -922.308757243768
  C       3.912983     -1.270501     -0.473015
  C       2.603403     -1.328503      0.319065
  C       1.891129      0.028167      0.357740
  P       0.339608     -0.025777      1.377242
  C      -0.441674      1.587373      0.982358
  C      -1.837837      1.722921      1.089529
  C      -2.463055      2.950517      0.860053
  C      -1.702488      4.073509      0.523731
  C      -0.314652      3.960037      0.426185
  C       0.309213      2.728245      0.652151
  C      -0.688476     -1.162140      0.364045
  C      -1.122139     -2.367229      0.937845
  C      -1.890456     -3.275292      0.201134
  C      -2.237316     -2.986313     -1.120256
  C      -1.814359     -1.787980     -1.703363
  C      -1.046915     -0.883383     -0.965662
  H       4.405036     -2.256434     -0.488548
  H       3.731717     -0.966546     -1.516973
  H       4.616476     -0.548509     -0.026569
  H       2.813444     -1.669143      1.347509
  H       1.943789     -2.088520     -0.132515
  H       1.675127      0.371371     -0.669319
  H       2.568232      0.770382      0.812507
  H      -2.455620      0.859574      1.351997
  H      -3.550174      3.027984      0.943196
  H      -2.190717      5.034130      0.339458
  H       0.288969      4.833796      0.167054
  H       1.397307      2.679241      0.570078
  H      -0.858773     -2.606179      1.971746
  H      -2.219999     -4.209678      0.662863
  H      -2.839967     -3.693642     -1.696228
  H      -2.086300     -1.554785     -2.736245
  H      -0.735518      0.053306     -1.435899
33
Coordinates from ORCA-job data/geom_opt/82100/82100 E -922.309166342761
  C       3.893044     -1.292625     -0.461288
  C       2.583273     -1.331224      0.333170
  C       1.881730      0.030638      0.383105
  P       0.324298     -0.019498      1.408024
  C      -0.450554      1.595644      0.976890
  C      -1.843026      1.745600      1.114537
  C      -2.460188      2.975120      0.880655
  C      -1.696218      4.088717      0.512516
  C      -0.311502      3.957316      0.381452
  C       0.305336      2.722969      0.611446
  C      -0.698093     -1.159914      0.375566
  C      -1.084734     -2.393151      0.921505
  C      -1.830613     -3.307445      0.168539
  C      -2.201290     -2.995098     -1.141845
  C      -1.823577     -1.766023     -1.697198
  C      -1.079047     -0.857077     -0.943470
  H       4.375204     -2.284173     -0.484155
  H       3.715769     -0.980917     -1.504961
  H       4.609715     -0.580299     -0.017107
  H       2.783523     -1.678632      1.362836
  H       1.905304     -2.078360     -0.115042
  H       1.664489      0.387256     -0.640215
  H       2.559041      0.769645      0.846126
  H      -2.458107      0.886453      1.397658
  H      -3.545334      3.063918      0.986307
  H      -2.178945      5.052537      0.327615
  H       0.296190      4.819949      0.092964
  H       1.389567      2.652310      0.497561
  H      -0.799492     -2.642300      1.947944
  H      -2.124908     -4.264227      0.609370
  H      -2.787013     -3.706663     -1.731026
  H      -2.113285     -1.514630     -2.721684
  H      -0.800558      0.104181     -1.384901
33
Coordinates from ORCA-job data/geom_opt/82100/82100 E -922.309257826068
  C       3.891325     -1.306258     -0.446068
  C       2.583860     -1.336275      0.348529
  C       1.880045      0.024042      0.386208
  P       0.318911     -0.017294      1.414994
  C      -0.451621      1.603230      0.977530
  C      -1.842202      1.757519      1.130462
  C      -2.458488      2.986074      0.892595
  C      -1.696158      4.094880      0.506391
  C      -0.313885      3.957929      0.359020
  C       0.303049      2.724062      0.591505
  C      -0.705609     -1.157710      0.375018
  C      -1.063997     -2.405781      0.905481
  C      -1.800481     -3.321713      0.145427
  C      -2.190930     -2.994932     -1.155299
  C      -1.842763     -1.749532     -1.694115
  C      -1.107088     -0.839264     -0.934323
  H       4.375668     -2.296337     -0.460470
  H       3.713664     -1.004875     -1.492459
  H       4.608171     -0.588398     -0.011872
  H       2.781912     -1.673018      1.382077
  H       1.902996     -2.086463     -0.089328
  H       1.657928      0.372164     -0.638227
  H       2.552152      0.771531      0.842901
  H      -2.452453      0.899755      1.427301
  H      -3.541779      3.078984      1.010207
  H      -2.178074      5.058448      0.321159
  H       0.292725      4.815820      0.055570
  H       1.384430      2.645198      0.463308
  H      -0.762065     -2.661359      1.925347
  H      -2.072323     -4.290489      0.573455
  H      -2.769525     -3.707187     -1.749844
  H      -2.148514     -1.487519     -2.710869
  H      -0.848883      0.134766     -1.358714
33
Coordinates from ORCA-job data/geom_opt/82100/82100 E -922.309285290179
  C       3.887980     -1.311213     -0.432043
  C       2.579943     -1.339941      0.358293
  C       1.878723      0.020958      0.394017
  P       0.311577     -0.017038      1.418204
  C      -0.455593      1.606993      0.980571
  C      -1.840432      1.771997      1.171213
  C      -2.456090      3.000199      0.931005
  C      -1.698650      4.097481      0.505461
  C      -0.322327      3.950016      0.321845
  C       0.294534      2.716399      0.556552
  C      -0.708497     -1.156871      0.369423
  C      -1.059956     -2.409574      0.893383
  C      -1.788180     -3.326376      0.126807
  C      -2.177562     -2.995343     -1.172774
  C      -1.836731     -1.745265     -1.704451
  C      -1.108399     -0.833844     -0.939192
  H       4.371910     -2.301050     -0.445950
  H       3.713598     -1.009282     -1.478475
  H       4.604318     -0.594070      0.003215
  H       2.773697     -1.677125      1.392171
  H       1.898220     -2.088186     -0.080934
  H       1.656825      0.370091     -0.629505
  H       2.547762      0.768853      0.853779
  H      -2.444392      0.921968      1.500600
  H      -3.534665      3.102356      1.077847
  H      -2.179878      5.060794      0.319314
  H       0.280225      4.799269     -0.011469
  H       1.371151      2.627432      0.400627
  H      -0.758884     -2.665692      1.913100
  H      -2.054680     -4.298867      0.548960
  H      -2.749745     -3.708045     -1.772330
  H      -2.142277     -1.480913     -2.720333
  H      -0.853527      0.143889     -1.356036
33
Coordinates from ORCA-job data/geom_opt/82100/82100 E -922.309300432957
  C       3.892140     -1.317964     -0.412405
  C       2.583238     -1.344898      0.374991
  C       1.879663      0.014538      0.398197
  P       0.308928     -0.017731      1.418665
  C      -0.453706      1.608634      0.981419
  C      -1.835411      1.777319      1.191058
  C      -2.453338      3.003127      0.945079
  C      -1.700671      4.093850      0.495669
  C      -0.327700      3.943023      0.293750
  C       0.291556      2.711300      0.533246
  C      -0.711134     -1.153649      0.365202
  C      -1.040327     -2.418155      0.875325
  C      -1.767262     -3.332028      0.104365
  C      -2.178159     -2.985842     -1.184434
  C      -1.860780     -1.723854     -1.701152
  C      -1.133166     -0.814809     -0.932209
  H       4.379175     -2.306159     -0.418009
  H       3.719228     -1.024450     -1.461252
  H       4.605284     -0.595508      0.018701
  H       2.775580     -1.673698      1.411563
  H       1.904485     -2.097969     -0.060106
  H       1.656444      0.354640     -0.627755
  H       2.544523      0.768375      0.853802
  H      -2.433809      0.931715      1.541297
  H      -3.529233      3.109132      1.106705
  H      -2.183488      5.055403      0.305505
  H       0.270563      4.787756     -0.057767
  H       1.365505      2.618715      0.363230
  H      -0.722461     -2.684898      1.887002
  H      -2.015920     -4.314124      0.514579
  H      -2.749417     -3.696226     -1.787305
  H      -2.184521     -1.448260     -2.708217
  H      -0.895812      0.172693     -1.335846
33
Coordinates from ORCA-job data/geom_opt/82100/82100 E -922.309315769339
  C       3.898554     -1.320932     -0.388785
  C       2.586548     -1.347939      0.393895
  C       1.878905      0.009346      0.404785
  P       0.303500     -0.020447      1.417820
  C      -0.454362      1.607551      0.982134
  C      -1.828189      1.786905      1.231825
  C      -2.448029      3.011089      0.982944
  C      -1.703952      4.089534      0.491463
  C      -0.338594      3.928810      0.250737
  C       0.282142      2.697911      0.492153
  C      -0.713845     -1.151011      0.357223
  C      -1.030306     -2.423668      0.855718
  C      -1.754922     -3.334288      0.078988
  C      -2.176976     -2.976481     -1.203115
  C      -1.872633     -1.706725     -1.707674
  C      -1.146495     -0.800574     -0.933449
  H       4.389360     -2.307384     -0.385960
  H       3.728660     -1.035070     -1.440247
  H       4.607242     -0.593018      0.040515
  H       2.776545     -1.669091      1.433239
  H       1.912784     -2.106630     -0.039174
  H       1.656500      0.340634     -0.624268
  H       2.538838      0.768934      0.858001
  H      -2.418595      0.950759      1.616983
  H      -3.517858      3.126151      1.175693
  H      -2.188097      5.050050      0.298897
  H       0.252317      4.764582     -0.133224
  H       1.349915      2.596979      0.290994
  H      -0.704617     -2.699082      1.862564
  H      -1.993674     -4.322880      0.479471
  H      -2.746950     -3.684257     -1.810363
  H      -2.205491     -1.422725     -2.709492
  H      -0.918228      0.192969     -1.327398
33
Coordinates from ORCA-job data/geom_opt/82100/82100 E -922.309330964792
  C       3.905947     -1.327715     -0.355580
  C       2.588228     -1.352502      0.419451
  C       1.879141      0.004103      0.418824
  P       0.296119     -0.023148      1.417857
  C      -0.455413      1.606262      0.982556
  C      -1.814488      1.802749      1.293767
  C      -2.438481      3.024012      1.041787
  C      -1.711490      4.083332      0.486311
  C      -0.360371      3.906447      0.184698
  C       0.263453      2.677099      0.428142
  C      -0.715495     -1.146447      0.346140
  C      -1.016327     -2.429704      0.828031
  C      -1.737274     -3.335728      0.042741
  C      -2.172261     -2.962731     -1.231029
  C      -1.883783     -1.682828     -1.718571
  C      -1.160507     -0.781134     -0.935980
  H       4.397749     -2.313836     -0.344519
  H       3.742356     -1.047432     -1.409667
  H       4.610989     -0.596901      0.075147
  H       2.772879     -1.668060      1.461518
  H       1.919033     -2.114909     -0.014579
  H       1.662726      0.328329     -0.613939
  H       2.534648      0.766850      0.873514
  H      -2.390446      0.981948      1.731041
  H      -3.496972      3.152919      1.282821
  H      -2.198437      5.042200      0.291470
  H       0.216431      4.727744     -0.249004
  H       1.319210      2.563123      0.176954
  H      -0.682168     -2.717337      1.828816
  H      -1.963894     -4.332616      0.429951
  H      -2.740225     -3.666773     -1.844759
  H      -2.226868     -1.387306     -2.713717
  H      -0.944011      0.219992     -1.317295
33
Coordinates from ORCA-job data/geom_opt/82100/82100 E -922.309332213625
  C       3.918170     -1.330751     -0.322894
  C       2.597480     -1.353220      0.448376
  C       1.876410     -0.002982      0.422866
  P       0.289621     -0.028259      1.414191
  C      -0.456407      1.603609      0.980988
  C      -1.799794      1.817229      1.345208
  C      -2.425901      3.037398      1.094035
  C      -1.715363      4.079673      0.486483
  C      -0.379321      3.886192      0.132223
  C       0.245686      2.657042      0.374618
  C      -0.720418     -1.144568      0.334020
  C      -1.007944     -2.436725      0.800601
  C      -1.726882     -3.338115      0.008274
  C      -2.174226     -2.951703     -1.257469
  C      -1.899372     -1.662945     -1.729611
  C      -1.177464     -0.766106     -0.939970
  H       4.417954     -2.312597     -0.293361
  H       3.755852     -1.069711     -1.382244
  H       4.615636     -0.586901      0.098099
  H       2.781553     -1.649512      1.496291
  H       1.936522     -2.128849      0.024933
  H       1.662366      0.300904     -0.616751
  H       2.523233      0.773187      0.867691
  H      -2.362255      1.010156      1.824090
  H      -3.472433      3.179602      1.376720
  H      -2.203390      5.038364      0.292742
  H       0.184412      4.694218     -0.341921
  H       1.288884      2.529942      0.080558
  H      -0.665275     -2.735478      1.795342
  H      -1.942797     -4.341971      0.383682
  H      -2.741231     -3.652053     -1.876492
  H      -2.251855     -1.356623     -2.718329
  H      -0.971452      0.241551     -1.310093
33
Coordinates from ORCA-job data/geom_opt/82100/82100 E -922.309336799903
  C       3.913759     -1.329848     -0.334573
  C       2.594819     -1.351994      0.439169
  C       1.876791      0.000111      0.421364
  P       0.292025     -0.026766      1.415658
  C      -0.456253      1.604583      0.982120
  C      -1.805367      1.812671      1.327520
  C      -2.430353      3.033431      1.076073
  C      -1.713629      4.081796      0.486713
  C      -0.372051      3.893412      0.150700
  C       0.252092      2.664149      0.393769
  C      -0.718802     -1.145875      0.338371
  C      -1.010903     -2.435149      0.809594
  C      -1.730486     -3.338156      0.019627
  C      -2.173753     -2.956381     -1.248855
  C      -1.894256     -1.670309     -1.725952
  C      -1.171977     -0.772078     -0.938460
  H       4.410892     -2.313085     -0.310253
  H       3.749934     -1.063782     -1.392402
  H       4.614040     -0.589653      0.088075
  H       2.779958     -1.653447      1.485406
  H       1.930595     -2.123779      0.013788
  H       1.663592      0.309864     -0.616656
  H       2.526436      0.772375      0.868802
  H      -2.373444      1.000904      1.791396
  H      -3.481292      3.170901      1.344264
  H      -2.200806      5.040810      0.292893
  H       0.196827      4.705836     -0.309507
  H       1.299891      2.541487      0.114469
  H      -0.671204     -2.730622      1.806306
  H      -1.949838     -4.339672      0.399091
  H      -2.741003     -3.658042     -1.866053
  H      -2.243285     -1.367099     -2.716796
  H      -0.962951      0.233405     -1.312763
33
Coordinates from ORCA-job data/geom_opt/82100/82100 E -922.309333874110
  C       3.905585     -1.326909     -0.363253
  C       2.591468     -1.349278      0.417678
  C       1.878701      0.005998      0.414881
  P       0.299286     -0.023507      1.417295
  C      -0.454664      1.606024      0.983147
  C      -1.816626      1.798887      1.283130
  C      -2.440656      3.020424      1.032571
  C      -1.711335      4.084718      0.489488
  C      -0.357125      3.911040      0.198689
  C       0.266512      2.681650      0.440889
  C      -0.714631     -1.148125      0.347665
  C      -1.023118     -2.427963      0.833102
  C      -1.745979     -3.334215      0.049689
  C      -2.175544     -2.965264     -1.227096
  C      -1.879311     -1.688340     -1.718877
  C      -1.154486     -0.787145     -0.937572
  H       4.398468     -2.312357     -0.349366
  H       3.736757     -1.051921     -1.417949
  H       4.611504     -0.592964      0.060766
  H       2.780781     -1.659933      1.460466
  H       1.920897     -2.114346     -0.009746
  H       1.664982      0.326470     -0.619745
  H       2.534215      0.771179      0.865809
  H      -2.395966      0.974787      1.709509
  H      -3.501591      3.145134      1.265049
  H      -2.197975      5.044034      0.296432
  H       0.222269      4.735493     -0.225512
  H       1.324678      2.571317      0.198026
  H      -0.693653     -2.713840      1.836038
  H      -1.978151     -4.328220      0.440979
  H      -2.744846     -3.669553     -1.839228
  H      -2.217153     -1.394389     -2.716239
  H      -0.933297      0.211114     -1.323821
33
Coordinates from ORCA-job data/geom_opt/82100/82100 E -922.309337452957
  C       3.909026     -1.329523     -0.347994
  C       2.592671     -1.351217      0.429479
  C       1.878216      0.003030      0.419835
  P       0.295581     -0.024883      1.417163
  C      -0.455437      1.605545      0.982757
  C      -1.810467      1.806506      1.308269
  C      -2.435465      3.027281      1.056804
  C      -1.713425      4.082806      0.487304
  C      -0.366051      3.901303      0.171095
  C       0.258332      2.672283      0.414117
  C      -0.716354     -1.146552      0.342896
  C      -1.015856     -2.431693      0.820269
  C      -1.736728     -3.336078      0.032965
  C      -2.173617     -2.959873     -1.239286
  C      -1.886581     -1.677768     -1.722699
  C      -1.163371     -0.778301     -0.937728
  H       4.403410     -2.314184     -0.329333
  H       3.742725     -1.058491     -1.404126
  H       4.612656     -0.593054      0.075482
  H       2.779744     -1.657897      1.473832
  H       1.924606     -2.118909      0.002800
  H       1.665889      0.319050     -0.616447
  H       2.531026      0.770972      0.870035
  H      -2.383332      0.989220      1.756160
  H      -3.490988      3.158708      1.309380
  H      -2.200677      5.041697      0.293506
  H       0.207321      4.719107     -0.273676
  H       1.310850      2.555356      0.150688
  H      -0.680938     -2.723048      1.819814
  H      -1.961813     -4.334315      0.417609
  H      -2.741614     -3.662667     -1.854391
  H      -2.230407     -1.378441     -2.716450
  H      -0.948932      0.224029     -1.317230
33
Coordinates from ORCA-job data/geom_opt/82100/82100 E -922.309332248121
  C       3.918310     -1.334810     -0.312871
  C       2.597941     -1.354313      0.458372
  C       1.876192     -0.004308      0.428117
  P       0.287608     -0.028818      1.415409
  C      -0.457088      1.604143      0.981688
  C      -1.794324      1.824436      1.364082
  C      -2.421376      3.043784      1.111591
  C      -1.717775      4.079062      0.484276
  C      -0.387754      3.878810      0.111567
  C       0.237991      2.650354      0.355336
  C      -0.720931     -1.143747      0.331194
  C      -1.001329     -2.440059      0.790290
  C      -1.718205     -3.339956     -0.005563
  C      -2.171142     -2.948053     -1.267583
  C      -1.903730     -1.654941     -1.732232
  C      -1.183690     -0.759786     -0.939084
  H       4.418258     -2.316341     -0.279310
  H       3.755885     -1.078076     -1.373218
  H       4.615551     -0.589038      0.104969
  H       2.781693     -1.646772      1.507369
  H       1.936617     -2.131277      0.037856
  H       1.667044      0.296595     -0.613353
  H       2.521459      0.773350      0.872695
  H      -2.351267      1.023030      1.858680
  H      -3.463116      3.190832      1.408963
  H      -2.206159      5.037339      0.289862
  H       0.170722      4.681102     -0.378204
  H       1.276160      2.517955      0.046343
  H      -0.654753     -2.743601      1.782207
  H      -1.928106     -4.347036      0.364387
  H      -2.736559     -3.647314     -1.889164
  H      -2.260364     -1.343563     -2.717834
  H      -0.983769      0.251017     -1.303943
33
Coordinates from ORCA-job data/geom_opt/82100/82100 E -922.309338016418
  C       3.912203     -1.331164     -0.336346
  C       2.594835     -1.352062      0.439512
  C       1.877487      0.000606      0.422504
  P       0.292988     -0.026348      1.416532
  C      -0.456061      1.605015      0.982565
  C      -1.805448      1.812384      1.327149
  C      -2.431039      3.032729      1.075277
  C      -1.714802      4.081579      0.486322
  C      -0.372919      3.893827      0.151144
  C       0.251857      2.665005      0.394534
  C      -0.717935     -1.145789      0.338900
  C      -1.011227     -2.434680      0.810150
  C      -1.730867     -3.337487      0.019972
  C      -2.173061     -2.955957     -1.248896
  C      -1.892424     -1.670128     -1.726033
  C      -1.170183     -0.772194     -0.938307
  H       4.408795     -2.314614     -0.312261
  H       3.746720     -1.065624     -1.394012
  H       4.613607     -0.591065      0.084515
  H       2.781206     -1.653383      1.485541
  H       1.929020     -2.123233      0.015546
  H       1.666559      0.311167     -0.615730
  H       2.527569      0.772153      0.870570
  H      -2.373314      1.000355      1.790802
  H      -3.482195      3.169281      1.342933
  H      -2.202347      5.040288      0.292276
  H       0.195794      4.706486     -0.308801
  H       1.299851      2.542935      0.115842
  H      -0.672473     -2.730239      1.807165
  H      -1.950967     -4.338692      0.399761
  H      -2.740249     -3.657530     -1.866163
  H      -2.240450     -1.366597     -2.717073
  H      -0.960534      0.232975     -1.312993
33
Coordinates from ORCA-job data/geom_opt/82100/82100 E -922.309337722414
  C       3.909778     -1.329644     -0.346479
  C       2.593931     -1.351109      0.431763
  C       1.878266      0.002547      0.420086
  P       0.295614     -0.025391      1.417043
  C      -0.455374      1.605232      0.983003
  C      -1.809481      1.806993      1.311846
  C      -2.434859      3.027538      1.060276
  C      -1.714093      4.082072      0.487355
  C      -0.367615      3.899781      0.167829
  C       0.257144      2.670945      0.410901
  C      -0.716485     -1.146468      0.342115
  C      -1.016322     -2.431778      0.818811
  C      -1.737392     -3.335581      0.030997
  C      -2.174123     -2.958626     -1.241083
  C      -1.886712     -1.676352     -1.723783
  C      -1.163332     -0.777469     -0.938330
  H       4.405157     -2.313773     -0.326190
  H       3.742620     -1.060831     -1.403040
  H       4.612940     -0.591648      0.075116
  H       2.781780     -1.655778      1.476564
  H       1.926211     -2.120084      0.006836
  H       1.666460      0.316876     -0.616825
  H       2.530322      0.771708      0.869351
  H      -2.381326      0.990459      1.762418
  H      -3.489672      3.159510      1.315472
  H      -2.201592      5.040811      0.293495
  H       0.204797      4.716809     -0.279608
  H       1.308926      2.553338      0.144811
  H      -0.681586     -2.723787      1.818249
  H      -1.962722     -4.333950      0.415188
  H      -2.742257     -3.660990     -1.856549
  H      -2.230362     -1.376325     -2.717372
  H      -0.948642      0.224962     -1.317371
33
Coordinates from ORCA-job data/geom_opt/82100/82100 E -922.309337836872
  C       3.909921     -1.329857     -0.345481
  C       2.593996     -1.351247      0.432648
  C       1.878255      0.002371      0.420566
  P       0.295344     -0.025469      1.417088
  C      -0.455444      1.605197      0.982921
  C      -1.809023      1.807535      1.313592
  C      -2.434480      3.028028      1.061950
  C      -1.714251      4.081923      0.487142
  C      -0.368281      3.899057      0.165832
  C       0.256534      2.670265      0.409012
  C      -0.716586     -1.146386      0.341824
  C      -1.015799     -2.432061      0.817912
  C      -1.736709     -3.335711      0.029797
  C      -2.173936     -2.958250     -1.241963
  C      -1.887182     -1.675600     -1.724061
  C      -1.163925     -0.776835     -0.938300
  H       4.405409     -2.313927     -0.324888
  H       3.742836     -1.061347     -1.402136
  H       4.612973     -0.591674      0.075975
  H       2.781764     -1.655649      1.477533
  H       1.926379     -2.120373      0.007837
  H       1.666666      0.316486     -0.616462
  H       2.530134      0.771667      0.869857
  H      -2.380359      0.991517      1.765748
  H      -3.488895      3.160498      1.318600
  H      -2.201794      5.040647      0.293226
  H       0.203689      4.715599     -0.283050
  H       1.307900      2.552180      0.141521
  H      -0.680674     -2.724471      1.817066
  H      -1.961527     -4.334363      0.413493
  H      -2.741962     -3.660510     -1.857655
  H      -2.231245     -1.375165     -2.717412
  H      -0.949730      0.225925     -1.316836
