! RIJCOSX M062X def2-TZVP D3ZERO NormalSCF
%pal
nprocs 6
end

* xyz 0 1
  C          -3.70033944204359     -4.19290018374116      1.00254429908596
  C          -2.76857154519909     -3.19464159201717      0.35865644879646
  C          -1.90514186972877     -3.57667265393982     -0.69098017630055
  C          -1.07101492750765     -2.64162558068724     -1.31832426520229
  C          -1.05503365644694     -1.29296927340585     -0.90023862145630
  C          -1.91300894191782     -0.90490849838481      0.14906563706269
  C          -2.75589932704514     -1.84356414062310      0.76348947171113
  P           0.10679023812883     -0.14463927020890     -1.77055198756890
  C          -0.43907818857061      1.48811952882109     -1.09100506455991
  C           0.14849191547102      2.11586107017130      0.02622799818579
  C          -0.33519136641526      3.35051611590526      0.48535261453625
  C          -1.41859452425144      3.99559882592451     -0.14686135958858
  C          -2.00346297873373      3.36009749759662     -1.26359609871760
  C          -1.51640905739860      2.13394101151132     -1.73591377383271
  C          -1.91465527840920      5.33827985824773      0.33324333785011
  C           1.66301122151885     -0.42296897678690     -0.80746102104307
  C           2.84933311421685      0.15663706411715     -1.30812330764101
  C           4.06287739786066      0.01110254251985     -0.62276336867197
  C           4.13991023421237     -0.73646814845889      0.57237030370876
  C           2.95330213928610     -1.32188533864549      1.06095246648289
  C           1.73194752724578     -1.16844651312924      0.38716363032971
  C           5.45680488312793     -0.93247784475551      1.28427238172724
  H          -3.27603832417787     -5.21668130085908      0.98855078269547
  H          -3.92308158473268     -3.92440047445659      2.05446610378184
  H          -4.67225256087846     -4.23562637631833      0.46396798218870
  H          -1.89326196040142     -4.62626370449392     -1.02691790707324
  H          -0.41278474338517     -2.96220703596050     -2.14236758181822
  H          -1.91535500771182      0.14039751248469      0.49288906619642
  H          -3.41677120401437     -1.51987400772658      1.58416946432904
  H           0.98718654080866      1.62922702616822      0.54647426459488
  H           0.13704478411751      3.82230760229071      1.36258616278117
  H          -2.85234358124759      3.84038991010137     -1.77682361149213
  H          -1.98424633581014      1.66200835088535     -2.61542648032397
  H          -1.37757332560693      6.16740859181758     -0.17722454556681
  H          -1.75282276203376      5.46789942030645      1.42194603959151
  H          -2.99470627989984      5.47353883493370      0.12485020211343
  H           2.81612420757155      0.73724234842640     -2.24453705859156
  H           4.97428712502592      0.48104830591596     -1.02662122745441
  H           2.98494708851615     -1.90653169478251      1.99488012520168
  H           0.81955051554492     -1.62694671608161      0.79723011391750
  H           6.13799607078771     -0.07223623728184      1.12857690649199
  H           5.31558942149631     -1.06990494555337      2.37490763598408
  H           5.98244234863077     -1.83677890984684      0.90690201755855
*