46
Coordinates from ORCA-job data/geom_opt/70071/70071 E -1378.442356466448
  C       4.892537     -3.607543     -0.995109
  O       3.976134     -3.931013      0.042970
  C       3.093354     -2.955299      0.413077
  C       2.237990     -3.304647      1.456809
  C       1.285429     -2.397799      1.933079
  C       1.161046     -1.116490      1.371974
  C       2.028661     -0.778122      0.324110
  C       2.984952     -1.687151     -0.152143
  P      -0.108401     -0.003061      2.056364
  C      -1.642613     -0.508507      1.213556
  C      -1.691982     -1.373650      0.111577
  C      -2.911772     -1.721291     -0.487504
  C      -4.109372     -1.210139      0.006361
  C      -4.075218     -0.349894      1.102661
  C      -2.859161     -0.004386      1.701335
  O      -5.359306     -1.466358     -0.483858
  C      -5.446538     -2.366793     -1.580964
  C       0.284673      1.619420      1.326530
  C       1.282319      2.393860      1.940537
  C       1.635722      3.648761      1.433671
  C       1.000279      4.164988      0.305494
  C       0.006452      3.410755     -0.313267
  C      -0.346991      2.151541      0.193783
  O       1.438601      5.398940     -0.086342
  C       0.794787      5.981163     -1.212648
  H       4.367848     -3.398418     -1.933199
  H       5.537325     -2.770687     -0.706855
  H       5.532818     -4.479597     -1.159441
  H       2.312400     -4.291229      1.907719
  H       0.637075     -2.709573      2.750260
  H       1.980330      0.198096     -0.152017
  H       3.626490     -1.366249     -0.966060
  H      -0.784028     -1.795376     -0.312458
  H      -2.883863     -2.394328     -1.337948
  H      -5.002937      0.055767      1.498864
  H      -2.876071      0.669811      2.556041
  H      -6.503962     -2.475838     -1.840588
  H      -5.066210     -3.357483     -1.310683
  H      -4.927460     -1.969385     -2.459405
  H       1.802331      2.027275      2.824026
  H       2.412839      4.227473      1.927010
  H      -0.518368      3.767038     -1.193403
  H      -1.125898      1.599393     -0.326290
  H      -0.272844      6.133770     -1.022781
  H       0.954822      5.379042     -2.113136
  H       1.245783      6.963214     -1.384756
46
Coordinates from ORCA-job data/geom_opt/70071/70071 E -1378.446631627506
  C       4.823510     -3.553647     -1.057050
  O       3.934242     -3.890768     -0.008553
  C       3.051976     -2.937877      0.403005
  C       2.212001     -3.306908      1.464566
  C       1.278344     -2.406382      1.972060
  C       1.139332     -1.116635      1.425407
  C       1.982290     -0.761625      0.363598
  C       2.934840     -1.655542     -0.143551
  P      -0.113691     -0.003439      2.158789
  C      -1.635271     -0.491918      1.268177
  C      -1.657005     -1.346644      0.157798
  C      -2.859034     -1.696827     -0.471510
  C      -4.071409     -1.181764     -0.000712
  C      -4.063364     -0.322762      1.108654
  C      -2.864939      0.007879      1.737002
  O      -5.297589     -1.446143     -0.532146
  C      -5.358597     -2.331766     -1.634768
  C       0.291582      1.602284      1.381283
  C       1.292160      2.392219      1.978465
  C       1.651461      3.626369      1.441667
  C       1.005813      4.119497      0.297737
  C       0.000792      3.352243     -0.300653
  C      -0.343343      2.105086      0.237574
  O       1.427458      5.339895     -0.136648
  C       0.783256      5.892604     -1.269471
  H       4.277983     -3.325865     -1.989122
  H       5.472582     -2.706192     -0.776742
  H       5.459849     -4.431803     -1.235747
  H       2.303969     -4.304226      1.899092
  H       0.647862     -2.720627      2.808572
  H       1.914675      0.228469     -0.092143
  H       3.567301     -1.323201     -0.967393
  H      -0.729540     -1.762920     -0.240987
  H      -2.815919     -2.369855     -1.328424
  H      -5.007523      0.076579      1.484164
  H      -2.894372      0.669496      2.607273
  H      -6.417953     -2.432699     -1.909719
  H      -4.972329     -3.331012     -1.369581
  H      -4.811919     -1.928674     -2.504766
  H       1.805280      2.042696      2.878751
  H       2.431694      4.224440      1.916498
  H      -0.530482      3.695351     -1.188965
  H      -1.128379      1.531325     -0.259513
  H      -0.294380      6.043493     -1.085213
  H       0.934189      5.264179     -2.164194
  H       1.242597      6.873618     -1.455611
46
Coordinates from ORCA-job data/geom_opt/70071/70071 E -1378.447893650624
  C       4.761558     -3.536764     -1.115319
  O       3.916075     -3.859135     -0.034448
  C       3.036176     -2.924027      0.405834
  C       2.233691     -3.292643      1.502409
  C       1.312837     -2.395900      2.027971
  C       1.140147     -1.112066      1.471517
  C       1.944318     -0.758498      0.381383
  C       2.888352     -1.645304     -0.151531
  P      -0.117290     -0.003477      2.233185
  C      -1.634159     -0.496800      1.313571
  C      -1.634916     -1.320448      0.181510
  C      -2.823718     -1.665500     -0.473636
  C      -4.049054     -1.174628      0.000930
  C      -4.062800     -0.345437      1.138715
  C      -2.876255     -0.024973      1.785176
  O      -5.255695     -1.443917     -0.559506
  C      -5.304524     -2.286297     -1.688697
  C       0.283826      1.602244      1.426298
  C       1.266300      2.416480      2.026034
  C       1.629303      3.636844      1.471576
  C       1.000191      4.098539      0.299694
  C       0.009871      3.308449     -0.302556
  C      -0.333647      2.073338      0.261389
  O       1.409649      5.306631     -0.164493
  C       0.797105      5.830487     -1.320898
  H       4.185116     -3.318205     -2.034024
  H       5.412122     -2.673359     -0.880968
  H       5.392345     -4.419477     -1.293700
  H       2.358253     -4.287501      1.936668
  H       0.709958     -2.699803      2.889765
  H       1.840337      0.228015     -0.076263
  H       3.492978     -1.320774     -0.999613
  H      -0.692373     -1.707261     -0.212662
  H      -2.771032     -2.313176     -1.349910
  H      -5.020990      0.028054      1.507780
  H      -2.913062      0.610133      2.676108
  H      -6.364751     -2.378797     -1.964842
  H      -4.903895     -3.292707     -1.464595
  H      -4.749022     -1.856424     -2.543507
  H       1.758917      2.084873      2.945714
  H       2.394704      4.260161      1.940026
  H      -0.503211      3.632384     -1.209132
  H      -1.101548      1.472000     -0.230717
  H      -0.290199      5.974219     -1.177000
  H       0.964214      5.181925     -2.201513
  H       1.263800      6.808520     -1.506769
46
Coordinates from ORCA-job data/geom_opt/70071/70071 E -1378.448029395253
  C       4.770092     -3.540469     -1.109729
  O       3.916147     -3.860604     -0.036157
  C       3.038640     -2.926228      0.406302
  C       2.226990     -3.298580      1.494449
  C       1.307985     -2.399796      2.019422
  C       1.146872     -1.110777      1.471825
  C       1.961340     -0.753528      0.391040
  C       2.903049     -1.642250     -0.142308
  P      -0.117979     -0.002921      2.232770
  C      -1.637370     -0.503164      1.312343
  C      -1.639579     -1.334746      0.186548
  C      -2.828433     -1.677688     -0.469316
  C      -4.052259     -1.176905     -0.000905
  C      -4.065127     -0.340381      1.131136
  C      -2.878181     -0.021960      1.777481
  O      -5.256668     -1.445309     -0.563282
  C      -5.311424     -2.291651     -1.687976
  C       0.278970      1.608333      1.424786
  C       1.277062      2.411954      2.012647
  C       1.643329      3.630973      1.457818
  C       1.001828      4.101261      0.296468
  C      -0.004423      3.322386     -0.294095
  C      -0.351369      2.088955      0.271084
  O       1.413737      5.305591     -0.171362
  C       0.795455      5.840282     -1.318482
  H       4.202912     -3.308878     -2.030435
  H       5.424688     -2.682049     -0.870642
  H       5.393759     -4.427305     -1.288224
  H       2.346478     -4.298172      1.918056
  H       0.695535     -2.703321      2.874113
  H       1.866373      0.238828     -0.055081
  H       3.517902     -1.318194     -0.982471
  H      -0.696693     -1.729026     -0.198376
  H      -2.780987     -2.332071     -1.340221
  H      -5.024588      0.037442      1.491120
  H      -2.910329      0.618961      2.663988
  H      -6.371581     -2.376337     -1.964008
  H      -4.916566     -3.299470     -1.462225
  H      -4.749565     -1.873677     -2.543917
  H       1.778220      2.069649      2.923320
  H       2.420025      4.249497      1.912844
  H      -0.525785      3.657377     -1.191229
  H      -1.132531      1.494677     -0.207785
  H      -0.288798      5.994020     -1.165644
  H       0.941020      5.192707     -2.203053
  H       1.271832      6.812562     -1.505685
46
Coordinates from ORCA-job data/geom_opt/70071/70071 E -1378.448057722500
  C       4.758984     -3.549578     -1.117519
  O       3.922786     -3.857515     -0.026579
  C       3.043197     -2.923884      0.412711
  C       2.249640     -3.286680      1.516230
  C       1.328605     -2.387848      2.038736
  C       1.149643     -1.109266      1.473524
  C       1.946467     -0.761376      0.376729
  C       2.889192     -1.650286     -0.154020
  P      -0.118272     -0.002712      2.234403
  C      -1.637937     -0.506390      1.313693
  C      -1.637916     -1.317936      0.173430
  C      -2.827567     -1.662036     -0.480003
  C      -4.053191     -1.182948      0.005032
  C      -4.068285     -0.367055      1.150961
  C      -2.880187     -0.046535      1.795077
  O      -5.258231     -1.453933     -0.554229
  C      -5.313171     -2.278155     -1.695175
  C       0.276511      1.610270      1.425678
  C       1.255758      2.424746      2.029197
  C       1.620872      3.645716      1.476897
  C       0.997309      4.104838      0.302398
  C       0.009987      3.314770     -0.304111
  C      -0.336402      2.080082      0.258292
  O       1.407362      5.310853     -0.162131
  C       0.809647      5.835770     -1.324495
  H       4.178043     -3.335149     -2.033109
  H       5.410173     -2.682647     -0.903647
  H       5.386186     -4.434191     -1.291414
  H       2.386198     -4.278947      1.950882
  H       0.728724     -2.681603      2.905272
  H       1.835617      0.223367     -0.081951
  H       3.491299     -1.336682     -1.006803
  H      -0.692541     -1.694331     -0.222611
  H      -2.781655     -2.300221     -1.362469
  H      -5.030917     -0.007997      1.520538
  H      -2.911318      0.578394      2.692577
  H      -6.373540     -2.367015     -1.966997
  H      -4.907401     -3.286193     -1.493619
  H      -4.759480     -1.840211     -2.545705
  H       1.741660      2.088696      2.950045
  H       2.382304      4.275656      1.941162
  H      -0.495610      3.643824     -1.211956
  H      -1.102569      1.475568     -0.231397
  H      -0.278440      5.981405     -1.196865
  H       0.976319      5.185170     -2.202399
  H       1.282151      6.810195     -1.507306
46
Coordinates from ORCA-job data/geom_opt/70071/70071 E -1378.448068243576
  C       4.763106     -3.546778     -1.113075
  O       3.919676     -3.858533     -0.028593
  C       3.041323     -2.923487      0.411222
  C       2.240138     -3.290490      1.507438
  C       1.319376     -2.391434      2.030675
  C       1.149475     -1.108591      1.472853
  C       1.954377     -0.756047      0.383232
  C       2.896105     -1.645621     -0.147848
  P      -0.118284     -0.002597      2.233797
  C      -1.637318     -0.506638      1.313107
  C      -1.637558     -1.325568      0.177911
  C      -2.827205     -1.668606     -0.475809
  C      -4.051790     -1.181763      0.003729
  C      -4.066446     -0.359078      1.144445
  C      -2.878377     -0.038794      1.789255
  O      -5.257370     -1.451178     -0.555942
  C      -5.312788     -2.281437     -1.692673
  C       0.276036      1.609704      1.424424
  C       1.264648      2.417878      2.020685
  C       1.630206      3.638455      1.467231
  C       0.998075      4.102462      0.299579
  C       0.001554      3.318453     -0.299365
  C      -0.345928      2.084493      0.263673
  O       1.410095      5.307873     -0.165785
  C       0.804707      5.837278     -1.322311
  H       4.187935     -3.323293     -2.030088
  H       5.417229     -2.684525     -0.889630
  H       5.387470     -4.432691     -1.290530
  H       2.370792     -4.286414      1.935520
  H       0.712891     -2.688138      2.891547
  H       1.850545      0.232547     -0.068798
  H       3.505040     -1.329509     -0.994881
  H      -0.692628     -1.708247     -0.213188
  H      -2.782755     -2.312475     -1.354250
  H      -5.028968      0.005413      1.508990
  H      -2.908542      0.591823      2.682756
  H      -6.372573     -2.367399     -1.967701
  H      -4.912378     -3.290235     -1.484451
  H      -4.754704     -1.850603     -2.543902
  H       1.757277      2.077280      2.936231
  H       2.398710      4.264625      1.924927
  H      -0.510506      3.652455     -1.201800
  H      -1.119717      1.484485     -0.219589
  H      -0.281337      5.988785     -1.184751
  H       0.960050      5.186722     -2.202271
  H       1.280338      6.809438     -1.509044
46
Coordinates from ORCA-job data/geom_opt/70071/70071 E -1378.448070260142
  C       4.762769     -3.546657     -1.112568
  O       3.919518     -3.858601     -0.027992
  C       3.041079     -2.923021      0.411391
  C       2.239398     -3.290260      1.507187
  C       1.318747     -2.391097      2.030488
  C       1.149570     -1.108192      1.472613
  C       1.954958     -0.755223      0.383326
  C       2.896592     -1.644959     -0.147462
  P      -0.118240     -0.002523      2.233249
  C      -1.637005     -0.506976      1.312970
  C      -1.637007     -1.326297      0.177895
  C      -2.826701     -1.669222     -0.475610
  C      -4.051154     -1.181944      0.003896
  C      -4.065877     -0.358989      1.144438
  C      -2.877815     -0.038812      1.789385
  O      -5.257230     -1.451283     -0.555427
  C      -5.312231     -2.280905     -1.692649
  C       0.275682      1.609613      1.424021
  C       1.265033      2.417045      2.020065
  C       1.630691      3.637541      1.466455
  C       0.997663      4.102014      0.299438
  C       0.000269      3.318702     -0.298983
  C      -0.347331      2.084761      0.263854
  O       1.410037      5.307763     -0.165579
  C       0.804453      5.836885     -1.322131
  H       4.187301     -3.322760     -2.029434
  H       5.417562     -2.684863     -0.888691
  H       5.386906     -4.432706     -1.290818
  H       2.370045     -4.286533      1.934672
  H       0.711686     -2.687675      2.891063
  H       1.851195      0.233464     -0.068489
  H       3.506259     -1.329208     -0.994232
  H      -0.691964     -1.708914     -0.212979
  H      -2.782861     -2.313390     -1.353985
  H      -5.028715      0.005422      1.508474
  H      -2.907650      0.591990      2.682828
  H      -6.371919     -2.366499     -1.968600
  H      -4.912553     -3.290159     -1.484566
  H      -4.753606     -1.849573     -2.543421
  H       1.758151      2.075781      2.935160
  H       2.399808      4.263743      1.923276
  H      -0.512208      3.653633     -1.200956
  H      -1.121580      1.484921     -0.218863
  H      -0.281489      5.989501     -1.183987
  H       0.959227      5.185712     -2.201881
  H       1.280539      6.808750     -1.509889
