! RIJCOSX M062X def2-TZVP D3ZERO NormalSCF
%pal
nprocs 6
end

* xyz 0 1
  C           4.46999528232071     -0.62691867688997     -0.08724473381465
  N           3.04770785762208     -0.86983558525513     -0.25707577017266
  C           2.59269940484902     -2.00228712849814      0.53558469261893
  C           2.66521978894638     -0.96547505401318     -1.66479078227558
  C           1.15297822006269     -0.82737056780694     -1.88089633057969
  C           0.61422910010749      0.48943432165055     -1.30597293136333
  P          -1.20492610752013      0.43307535035705     -1.09805720869813
  O          -1.99918271604090      0.10886022840089     -2.35333065025751
  C          -1.68332888605748      2.03463828291888     -0.34814110324935
  C          -0.92258377685128      2.70569143550757      0.63160095745040
  C          -1.37948704130732      3.92235034863525      1.16272923926276
  C          -2.59277237823126      4.47411288510762      0.71590014504136
  C          -3.34650667899492      3.81290276077686     -0.26906970563275
  C          -2.89296519278535      2.59688708116871     -0.80325340545150
  C          -1.45641801913470     -0.84355773122499      0.20232505579327
  C          -0.84798589698639     -0.79887718598930      1.47280162570905
  C          -1.06418466263205     -1.83916274441530      2.39012086606003
  C          -1.88659141612563     -2.92555197496600      2.04157620950750
  C          -2.49596666135523     -2.96983149265413      0.77615936776872
  C          -2.28267094087122     -1.93032449788416     -0.14360927369425
  H           5.11550317691710     -1.47191163340906     -0.45239792467042
  H           4.70375967170752     -0.46969632843801      0.98606495346209
  H           4.76942279137985      0.28752626906400     -0.63926770999856
  H           2.86733836480546     -1.85056254242189      1.59924110190162
  H           3.03813935441250     -2.97954832202492      0.20320397995668
  H           1.49012381754702     -2.09879273981719      0.49195042660814
  H           3.18374260953390     -0.14530168575236     -2.20706353121382
  H           3.02170811961105     -1.92602712231973     -2.12851772640141
  H           0.62754515429535     -1.68650110455905     -1.41048031863610
  H           0.91937836776097     -0.89658826692340     -2.96209012524419
  H           0.85041549190486      1.35429235187818     -1.96144456936253
  H           1.09459183608224      0.67736009693005     -0.32110532377821
  H           0.03627322617032      2.28997813981306      0.97775791396851
  H          -0.78323582450935      4.44526143719772      1.92632724556040
  H          -2.94849588634199      5.42837722865786      1.13414493835979
  H          -4.29187964040950      4.25029608172160     -0.62558261358235
  H          -3.45434144697021      2.06358806409766     -1.58642398934938
  H          -0.20258219987752      0.04711820698176      1.75439526053947
  H          -0.58856040631352     -1.80340136554914      3.38234012937872
  H          -2.05343824086886     -3.74085879238728      2.76237671233721
  H          -3.14071672140804     -3.81979333320573      0.50401083106972
  H          -2.74194889444370     -1.93357569446026     -1.14479692492802
*