! RIJCOSX M062X def2-TZVP D3ZERO NormalSCF
%pal
nprocs 6
end

* xyz 0 1
  C          -2.32107327647580      3.07267084228819      1.71121053346276
  C          -1.60650465162768      1.89450037713294      1.97589975578436
  C          -0.71689901291083      1.38901691212698      1.00728363965896
  C          -0.52345756409740      2.06785498596944     -0.21059361421112
  C          -1.25167273945931      3.24317318637410     -0.45728193088074
  C          -2.15374078775744      3.75165411374967      0.49342024198770
  Cl         -1.02266600328220      4.08987891692778     -1.97125149630428
  P           0.13821123054658     -0.17962237256494      1.41962316848578
  O           0.30719373555935     -0.40039079122425      2.91113099577088
  C           1.72718824524160     -0.11767964095721      0.50683369836836
  C           1.83723041373398     -0.45039831268102     -0.85657601229800
  C           3.08756515624411     -0.33646925484696     -1.48583195068707
  C           4.22243448278580      0.08959564875835     -0.77396799571111
  C           4.09954355013591      0.39952976652554      0.59019222143890
  C           2.85849962530406      0.29688079078849      1.23693237067062
  Cl          3.23229687797351     -0.74118854851705     -3.18189556054408
  C          -0.83941462202387     -1.49359292866287      0.59576073939914
  C          -1.55721606563112     -1.27722329102284     -0.59567514240346
  C          -2.24411472217485     -2.35324947573269     -1.18093211577911
  C          -2.23384214668997     -3.62867054227581     -0.58971288849540
  C          -1.52857264316875     -3.82308552815086      0.60900487253106
  C          -0.83170329910996     -2.76252268541858      1.20774273497029
  Cl         -3.13264271240243     -2.09549694366283     -2.66598336462260
  H          -3.01730453586649      3.47507350441168      2.46271702471331
  H          -1.71459926502252      1.36073762425084      2.93204374262562
  H           0.19546686443535      1.70776762897746     -0.96067724075485
  H          -2.70854230122544      4.67528795866249      0.27679544817114
  H           0.97169903734572     -0.81330912174394     -1.42948806301861
  H           5.19003719066316      0.16651976598787     -1.28938468828625
  H           4.98886812168357      0.72160270834638      1.15304293008622
  H           2.75027738951144      0.52055090668165      2.30888017582888
  H          -1.60337887120335     -0.28333508071926     -1.06380358152711
  H          -2.78283007909357     -4.45297811151101     -1.06611872406331
  H          -1.52896279587760     -4.81760376847772      1.08058473971582
  H          -0.28737282606358     -2.89547823978999      2.15473033591734
*