! RIJCOSX M062X def2-TZVP D3ZERO NormalSCF
%pal
nprocs 6
end

* xyz 0 1
  C           4.10438218921466     -1.19159469275325      0.62677978689626
  C           2.87175292133357     -1.78499334166750      1.32620185011199
  C           1.61220896755916     -0.94373335402803      1.05574687244272
  C           1.37337170923555     -0.77975159735683     -0.45454257913019
  C           2.60809742228100     -0.18560777532490     -1.16166060420984
  C           3.86473848976763     -1.02259072126982     -0.88161385669397
  P          -0.12445039709969      0.19721647753023     -0.94274372722642
  O          -0.30196043815379      0.23992452310973     -2.45544874860000
  C          -1.58080604750525     -0.51743687396451     -0.05235942027587
  C          -1.76048378674763     -1.99962423960539     -0.43825137900680
  C          -3.04877250674710     -2.58967819990962      0.15649737921119
  C          -4.28139251805492     -1.75860086432441     -0.22795048370552
  C          -4.10790887520652     -0.29005749854797      0.18582741894127
  C          -2.82929256671671      0.31476652319945     -0.41194081746802
  C           0.10883185695115      1.87822196724969     -0.24008594020211
  C           0.04408134508225      2.18112938017460      1.13637126434461
  C           0.24748815737046      3.49876875381207      1.57718995315894
  C           0.51477229645440      4.51884827806674      0.64748332293159
  C           0.56825255326912      4.22274563310428     -0.72537250132003
  C           0.36140277114056      2.90729934797709     -1.16950074510048
  H           4.99629802052731     -1.82719558996587      0.81087798362876
  H           4.33083654907842     -0.19670468636919      1.07354485360918
  H           2.70223733077652     -2.82116759347374      0.95522588725849
  H           3.04588659411686     -1.86791959932532      2.42003770042266
  H           0.73041159986359     -1.40603673210670      1.54834594502120
  H           1.74519828194775      0.06160312305938      1.51246546581285
  H           1.17154725861707     -1.78177175519725     -0.89986902241331
  H           2.76585587870388      0.85331345018961     -0.79310787985303
  H           2.40480057746171     -0.11007361666829     -2.24886096739544
  H           4.74824230991862     -0.55491901300751     -1.36544458452557
  H           3.74719848648968     -2.02639689110665     -1.34943611232312
  H          -1.39112187705568     -0.44274696674936      1.04296502438403
  H          -1.79006328232321     -2.06570544090305     -1.54835327021241
  H          -0.88282892375799     -2.59478563118484     -0.10859564725602
  H          -3.16868948816376     -3.64320423236693     -0.17399104040306
  H          -2.95833650622918     -2.61774718134016      1.26648987165492
  H          -4.42617873628778     -1.81139553157010     -1.33064270520574
  H          -5.19708862986164     -2.18788524244775      0.23098618796726
  H          -4.06010287775689     -0.22564107958415      1.29701382599001
  H          -4.98953053526248      0.30981572472418     -0.12431946496654
  H          -2.69709063709865      1.36316903495507     -0.07162205683291
  H          -2.90634697858163      0.35259885855648     -1.52056216910815
  H          -0.17761987897157      1.39312155225298      1.87247346325594
  H           0.19350360500347      3.73184739048235      2.65184936156321
  H           0.67451423204796      5.55097195344737      0.99582492364152
  H           0.76673478841471      5.02347286131115     -1.45453909374801
  H           0.37741729495501      2.64613410891665     -2.23938552506604
*