! RI BP86 def2-SVP D3BJ TIGHTSCF Opt
%pal
nprocs 6
end

* xyz 0 1
C     -2.822842   -2.871262    0.265035
C     -1.811093   -2.559138   -0.554492
C     -0.440372   -2.157229   -0.095075
P      0.083319   -0.599740   -0.897053
O      0.094344   -0.827125   -2.397932
C     -1.010732    0.730828   -0.406850
C     -1.663813    0.760617    0.832762
C     -2.498235    1.828286    1.171321
C     -2.688946    2.878332    0.275697
C     -2.047619    2.862240   -0.960166
C     -1.214487    1.795505   -1.298205
C      1.715060   -0.243172   -0.242102
C      1.921441    0.027483    1.117793
C      3.203843    0.294294    1.601238
C      4.292785    0.292518    0.731842
C      4.101575    0.025604   -0.621786
C      2.820256   -0.240377   -1.105439
H     -2.716600   -2.859235    1.344926
H     -3.791687   -3.152917   -0.138216
H     -1.970515   -2.592177   -1.632437
H     -0.392729   -2.051005    0.993274
H      0.273848   -2.936673   -0.382256
H     -1.535475   -0.046197    1.548142
H     -3.002991    1.840416    2.134099
H     -3.339908    3.707913    0.539057
H     -2.196892    3.677584   -1.663324
H     -0.720282    1.786196   -2.268946
H      1.086389    0.038923    1.812654
H      3.354283    0.507385    2.656681
H      5.290676    0.502216    1.108344
H      4.948856    0.026116   -1.302856
H      2.678544   -0.446207   -2.165730
*