13
Coordinates from ORCA-job data/geom_opt/68983/68983 E -460.784173205277
  C          -1.25534116559552     -1.04297987797386     -0.12068251206197
  P          -0.06912500564973      0.14627895558856     -0.92583255487542
  C          -0.28371916372197      1.59613652665973      0.22382378639591
  C           1.52832363973169     -0.53034260390802     -0.24745040830210
  H          -1.08477985649247     -1.13824187313524      0.96540288211775
  H          -2.28920860120711     -0.70183762791343     -0.28843966999395
  H          -1.15161867959377     -2.03685062161809     -0.58421536422013
  H          -1.27848454612947      2.04369079146612      0.07035358655409
  H           0.46900985817582      2.36569559911068     -0.00979807155272
  H          -0.18247954568872      1.31117659633989      1.28508909568132
  H           2.35439295289152      0.15328631112783     -0.49977746914333
  H           1.49865095123411     -0.66251477020357      0.84769495797904
  H           1.74437816204561     -1.50349740554060     -0.71616925857849
