! RIJCOSX M062X def2-TZVP D3ZERO NormalSCF
%pal
nprocs 6
end

* xyz 0 1
  C           6.00817329035668     -0.05014518225633     -0.29556828097337
  C           4.92566218719629     -0.60861611903769      0.28899081976846
  C           3.52206430525716     -0.49406787988684     -0.13727556269009
  C           2.51742605909672     -1.15456339674567      0.60819508420325
  C           1.16440266281937     -1.07211729542583      0.25061175617403
  C           0.76988973300777     -0.32621496803741     -0.87811378422720
  C           1.77041757865562      0.32315916620678     -1.64083973130615
  C           3.11576625350475      0.25060110662427     -1.27325854097187
  P          -0.98015875615548     -0.14285041205942     -1.44589263800139
  C          -1.84717986675306     -1.30454958207845     -0.29354228414640
  C          -1.90755546523213     -2.66327711498957     -0.67655414528895
  C          -2.52720773199632     -3.61137536199749      0.15144870878150
  C          -3.11429999600329     -3.20982447171090      1.36431288422583
  C          -3.07207573905653     -1.85823805249020      1.74524870715332
  C          -2.43935244029255     -0.90980917335175      0.92430654601661
  C          -1.42114253716231      1.49325989534027     -0.69788066629884
  C          -2.64290039283412      2.07588036748995     -1.10271590442750
  C          -3.06135528310804      3.30261474787290     -0.56563656858145
  C          -2.25316026160312      3.97400377764696      0.36867670097893
  C          -1.02968269892939      3.40885674384995      0.76543118826553
  C          -0.61547240445283      2.17381326267672      0.23919581003574
  H           5.93524009569660      0.57765305656110     -1.19796735906916
  H           7.01643226538143     -0.20613614526348      0.11626958080607
  H           5.08191281835267     -1.22600202727300      1.19174644929879
  H           2.80950988258174     -1.74110905081502      1.49426573017759
  H           0.40546047516113     -1.58772257363650      0.85758470064043
  H           1.48040159688083      0.89877050959037     -2.53496250825573
  H           3.86822024024797      0.77300409134052     -1.88299482217085
  H          -1.45880346717150     -2.97694749521002     -1.63318374815886
  H          -2.56123313867598     -4.66814950963031     -0.15572567093726
  H          -3.60921984014633     -3.95110727917180      2.01045005115666
  H          -3.53199200689082     -1.53791095518302      2.69313257640009
  H          -2.40023233095720      0.14575490560231      1.23240010595712
  H          -3.27095777128103      1.55693087720340     -1.84511440748183
  H          -4.01881998870013      3.74254463486160     -0.88506116384252
  H          -2.57563221799101      4.94122843894538      0.78390293051479
  H          -0.39193083635951      3.93131776096334      1.49544823970748
  H           0.33938572755591      1.73134170347486      0.56067021656721
*