38
Coordinates from ORCA-job data/geom_opt_P_BP86/316378/316378 E -888.288492629529
  C          -0.21037029517889      1.54827015527285      1.72558802466556
  C          -0.49638393682974      1.77927166759558      0.23419729036747
  C           0.49811709566773      2.83053468244278     -0.30470394781268
  C          -1.93226410449158      2.30055820465102      0.03790064494926
  P          -0.24425349000244      0.27475005101662     -0.94185104880600
  C           1.39231234840658     -0.36883846381720     -0.34316587302946
  C           2.48825072240042     -0.14830375417502     -1.20821099246793
  C           3.78440554398924     -0.56708392982028     -0.86387983059489
  C           4.00669060746249     -1.23318453162715      0.35168100429978
  C           2.92721419222603     -1.47102270247528      1.21996817609014
  C           1.63643349053989     -1.03775331753796      0.87893553854182
  C          -1.50522382900907     -1.12081640467757     -0.52423742299320
  C          -1.95302284518202     -1.29884960730420      0.93514162874446
  C          -2.74463098552967     -0.81518999764856     -1.39602942900698
  C          -0.86352716022129     -2.42595573012935     -1.03872075298312
  H           0.83887104148072      1.23733836690664      1.89511675467441
  H          -0.87425061991583      0.78598282187638      2.17391754300929
  H          -0.36814294625130      2.49699889057588      2.28491067062670
  H           0.39893233325319      3.77435390949170      0.27464549778417
  H           1.54761943185101      2.48471710668526     -0.20746304872319
  H           0.31006184359388      3.06007772672765     -1.37320972057597
  H          -2.04348240759160      3.29164780688426      0.52922415561937
  H          -2.17790542897301      2.42811290269324     -1.03675919351897
  H          -2.68754234092101      1.62518613048338      0.48737624455064
  H           2.30913063908088      0.35782360333776     -2.17039549338492
  H           4.62217203998624     -0.37978561741888     -1.55340256883822
  H           5.01907393790252     -1.57040015598287      0.62264381094818
  H           3.09232198085691     -1.99426353551412      2.17476747143825
  H           0.81045375285641     -1.22515470920599      1.57831728735739
  H          -1.11232867643535     -1.53365219310848      1.61585285495525
  H          -2.67160942418571     -2.14563444531921      1.00209943058713
  H          -2.47119555874538     -0.40109033134891      1.32520522778872
  H          -2.46714405935220     -0.70364835009949     -2.46352313751191
  H          -3.47790553527795     -1.64709379528699     -1.31375849412965
  H          -3.25797166696921      0.11429405987079     -1.08179587030511
  H          -0.01753288116022     -2.75512980810552     -0.40470360530150
  H          -1.62368147058814     -3.23706153266482     -1.04699086940323
  H          -0.48169233874253     -2.31000417324395     -2.07468895761102
