20
Coordinates from ORCA-job data/geom_opt/69597/69597 E -652.284637415094
  C          -2.28902213934390     -0.83078492445643     -0.97314405081537
  P          -1.58238779096103     -0.55980688645283      0.72999141168009
  C          -2.10688161063355      1.21022012431984      0.98728634596760
  C           0.21171092413015     -0.32118519347231      0.31494167181027
  C           0.67047948763345      0.57287660736791     -0.66736843568830
  C           2.03455147997261      0.70561694766047     -0.93335462564096
  C           2.96603447653417     -0.05593784673926     -0.21849924840758
  C           2.52504527879738     -0.94820743494436      0.76119259565224
  C           1.15716082567590     -1.07830206343875      1.02417493044371
  H          -3.38752114424524     -0.87313764019148     -0.89989069732749
  H          -2.01344116496320     -0.03801407134140     -1.68736274685927
  H          -1.93541089484595     -1.79748657211653     -1.36306475683389
  H          -1.84579207413569      1.86742342173448      0.14184917990583
  H          -3.19864607317440      1.23994994394609      1.13239066148895
  H          -1.63062422391647      1.60082810597167      1.89952856879805
  H          -0.04297540021375      1.17618790456905     -1.23546694095879
  H           2.37401473625574      1.40572935721774     -1.70141808871188
  H           4.03405741690493      0.04775825768822     -0.42671488134616
  H           3.24695168950414     -1.54616667943554      1.32360461815595
  H           0.81269620102472     -1.77756235788660      1.79132248868702
