28
Coordinates from ORCA-job data/geom_opt/342156/342156 E -915.060166307629
  C           3.18656850531670     -1.19205206386996     -0.69250922663482
  C           2.99505668896707     -1.07736284972729      0.68611010080408
  C           1.77382605460975     -0.61269497419504      1.18562038069130
  C           0.73072613952235     -0.25770615116818      0.31530505071534
  C           0.93700757190705     -0.37785497207127     -1.07049540665843
  C           2.15487368185359     -0.84127235076867     -1.57105222872820
  P          -0.85191499921269      0.34590996691302      1.06385735451554
  C          -2.08659322625256     -0.73622829130373      0.16362813728916
  C          -1.94991658557616     -2.20775055409324      0.58769770982256
  C          -2.93130481223921     -3.07276173831416     -0.06945001667697
  N          -3.71730221860788     -3.73655435894563     -0.60244697468624
  C          -1.11368322212476      1.91872599038741      0.08218094427955
  C          -0.04776856579635      2.97265733074884      0.42416512243646
  C          -0.25502850176185      4.23160918223540     -0.29370993079105
  N          -0.43967930741453      5.21759226048607     -0.87357272746116
  H           4.13948624817262     -1.55495924865309     -1.08560370511208
  H           3.79731129550815     -1.35007061281028      1.37634390085111
  H           1.62364715254877     -0.52300957216324      2.26512001131017
  H           0.14266952502865     -0.10899526787326     -1.77210552397923
  H           2.30097310621457     -0.92969983123477     -2.65054916500231
  H          -1.97280436289456     -0.64598589860420     -0.92888841974565
  H          -3.09238328100035     -0.36282434973153      0.41646709465298
  H          -0.94084807627142     -2.58153152019765      0.34529172893831
  H          -2.06849357155850     -2.30797783265061      1.67985741120097
  H          -1.11112493808452      1.71678284319036     -1.00126035129163
  H          -2.11594463023862      2.29924137495779      0.33837548018064
  H           0.95718223021506      2.59272287736362      0.17436108818838
  H          -0.04453590083038      3.18204961209332      1.50726416089122
