29
Coordinates from ORCA-job data/geom_opt_PO_BP86/342156/342156 E -990.698575339650
  C           3.58598106799617      1.02705810422236      1.05556276993785
  C           3.14232883817291      0.88877573262301     -0.27148555943337
  C           1.85417489591567      0.40036139598367     -0.53194804006585
  C           1.01015180175374      0.04672557647092      0.54060105434631
  C           1.45655984366698      0.17999030031260      1.86949880753437
  C           2.74585983907446      0.67129670393026      2.12356411419904
  P          -0.70060053510688     -0.53087512268394      0.30323685838028
  O          -1.43417773903856     -0.81447942577476      1.60571011223176
  C          -0.58359614374807     -2.04261925971030     -0.76426890865790
  C          -1.87848385656139     -2.87853204908656     -0.66860713869014
  C          -3.00164407575772     -2.27364610007568     -1.38744341277028
  N          -3.87172578410302     -1.74162120756341     -1.96400053974958
  C          -1.54227904515100      0.76816276054866     -0.70811347514341
  C          -1.85176446878927      2.00078471514084      0.16825336420293
  C          -0.67903482697152      2.83217161373129      0.45633780009710
  N           0.26048521629367      3.49841426919554      0.66847126622234
  H           4.59336277239720      1.42212930962777      1.25691721436794
  H           3.80061731995097      1.17360154256498     -1.10609363844884
  H           1.50884004294462      0.30916303251404     -1.57446279294406
  H           0.76979039900321     -0.09238717952872      2.68576750142724
  H           3.09360622267976      0.78708711162309      3.16129638675575
  H           0.25956222695548     -2.63340159250976     -0.35243035693996
  H          -0.33066024396076     -1.77885524550956     -1.81155567442230
  H          -1.71337495927338     -3.90121437837814     -1.06768433234879
  H          -2.16134707695476     -2.97166540475777      0.40270517763372
  H          -2.49457773815980      0.32735381661788     -1.06537035769647
  H          -0.93536885860168      1.03377525956432     -1.59762906801447
  H          -2.61358736901377      2.63877125411545     -0.32683233667087
  H          -2.28909976561325      1.65367446679192      1.12985620465967
