32
Coordinates from ORCA-job data/geom_opt_P_BP86/603962/603962 E -1067.859503882892
  C          -1.73044275800787     -3.71020236960405      0.85421626096512
  C          -1.31332953488227     -3.86088849286778     -0.47796798096703
  C          -0.71956069695997     -2.78050461800013     -1.15347751239722
  C          -0.53270546206262     -1.54417043011401     -0.50077853511466
  C          -0.95359109799843     -1.40035177628615      0.84057047869267
  C          -1.55091749355186     -2.47838511292884      1.51031585856681
  P           0.28408007290656     -0.18033834624557     -1.45703965194320
  C          -0.78223345318854      1.27782810080973     -0.97298900553859
  C          -1.55433449513652      1.89595580145477     -1.97680892136800
  C          -2.35717317778322      2.99497127391684     -1.63438533662925
  C          -2.35361530481730      3.44120238649356     -0.30508262751356
  C          -1.55050635902259      2.75660674528291      0.62516103542507
  N          -0.78573591928651      1.70195244656783      0.30661423359613
  C           1.74529227524064      0.20137670781457     -0.37724340584838
  C           2.31946093705783     -0.73030731332455      0.51212453787800
  C           3.46799001669757     -0.35309557045402      1.22341608624272
  C           3.99844759109273      0.93115051626045      1.02627305138939
  C           3.35679148738447      1.77954813413092      0.10617083997317
  N           2.26565698830982      1.42720355270437     -0.58863074664880
  H          -2.19816848774808     -4.55443227228164      1.38427950772766
  H          -1.45272305072257     -4.82251742066269     -0.99581094846799
  H          -0.39448103882466     -2.89315174298399     -2.20028450858685
  H          -0.81023387136469     -0.43040122077868      1.34240934511418
  H          -1.87908152161907     -2.35832772285699      2.55475744410766
  H          -1.51145502393189      1.51773296278021     -3.00948625786592
  H          -2.97002421396727      3.50025008275919     -2.39704352698423
  H          -2.95934689579998      4.30373431533110      0.01120317883691
  H          -1.52588405830882      3.07685539744740      1.68236237572633
  H           1.86504026505008     -1.72194662329262      0.65070039423128
  H           3.93966423069993     -1.05350704941800      1.93050822532869
  H           4.89370365365747      1.27077138776518      1.56847832532482
  H           3.74941939688763      2.79538927058065     -0.08253521325293
