! RI BP86 def2-SVP D3BJ TIGHTSCF Opt
%pal
nprocs 6
end

* xyz 0 1
C      4.166674   -0.172766    1.277793
C      3.551535    0.676047    0.359596
C      2.159264    0.706768    0.256486
C      1.366858   -0.114071    1.072216
C      2.001150   -0.960794    1.995238
C      3.392050   -0.990687    2.096942
P     -0.434496   -0.135524    0.975168
O     -1.048371   -0.326999    2.352921
C     -0.973745    1.422593    0.242888
C     -1.221020    1.568401   -1.129954
C     -1.622788    2.800209   -1.650743
C     -1.782693    3.897943   -0.807309
C     -1.544277    3.766667    0.558693
C     -1.143210    2.536679    1.080340
C     -0.918903   -1.472520   -0.135033
C     -0.055881   -1.999944   -1.106690
C     -0.483364   -3.025420   -1.952652
C     -1.775123   -3.535265   -1.836989
C     -2.641675   -3.023613   -0.874006
C     -2.215874   -1.999448   -0.028062
H      5.250458   -0.192963    1.359059
H      4.157434    1.318559   -0.274665
H      1.704225    1.380028   -0.465466
H      1.399985   -1.597139    2.643606
H      3.869324   -1.648943    2.818507
H     -1.106735    0.727144   -1.808764
H     -1.815485    2.902735   -2.715910
H     -2.098725    4.855228   -1.213913
H     -1.674591    4.619855    1.219626
H     -0.965384    2.437807    2.150535
H      0.957522   -1.622132   -1.215426
H      0.193966   -3.430304   -2.700661
H     -2.105128   -4.335813   -2.494118
H     -3.647673   -3.424114   -0.777507
H     -2.895305   -1.608207    0.728257
*