! RI BP86 def2-SVP D3BJ TIGHTSCF Opt
%pal
nprocs 6
end

* xyz 0 1
C      2.706125   -0.053177    0.684599
C      1.698752    0.313690   -0.400894
P     -0.009282    0.002366    0.066768
O     -0.215718    0.054968    1.551805
C     -0.440411   -1.597912   -0.630548
C     -1.482064   -2.358859    0.184069
C     -2.779349   -1.674890    0.148819
N     -3.783839   -1.099433    0.071592
C     -1.002576    1.219052   -0.808476
C     -1.349317    2.443955    0.032398
C     -0.147861    3.227076    0.340992
N      0.833127    3.813953    0.539370
C      2.732771   -1.502646    0.908955
N      2.722442   -2.656367    1.031168
H      3.702822    0.284453    0.379212
H      2.460573    0.465343    1.617313
H      1.815134    1.378966   -0.621005
H      1.919967   -0.219523   -1.332880
H     -0.779261   -1.460984   -1.664125
H      0.461857   -2.214424   -0.681845
H     -1.144396   -2.467478    1.220070
H     -1.593448   -3.368189   -0.227641
H     -0.483830    1.513129   -1.728406
H     -1.940092    0.749614   -1.120726
H     -2.058109    3.070681   -0.520312
H     -1.844015    2.136635    0.959729
*