27
Coordinates from ORCA-job data/geom_opt/73879/73879 E -843.787129933542
  C          -0.16653987416259     -2.69757804254687     -0.03426347856537
  P          -0.08839739541836     -1.30391620887732      1.19682026021430
  C           1.40503035940561     -0.37659786940306      0.63255893199711
  C           1.62535809904844      0.90015734405915      1.18347200441003
  C           2.75451444889153      1.64315614542729      0.84139138728594
  C           3.69940717743943      1.11698361595695     -0.04772345264122
  C           3.50001920736827     -0.15343781714165     -0.59064155507508
  C           2.36037847952103     -0.89422476919597     -0.25565363628479
  C          -1.42907675697520     -0.22376577309817      0.50832553853885
  C          -1.29564416178479      0.49460876485100     -0.69219511979716
  C          -2.35226361140148      1.26740077770246     -1.17719842168991
  C          -3.55846274249768      1.33256488674891     -0.46996448362004
  C          -3.70159779196324      0.62417005191203      0.72558608943819
  C          -2.64009114964601     -0.14516623258538      1.21332620118159
  H          -0.08546314244680     -2.35152504800204     -1.07681220670099
  H          -1.13610842281704     -3.20120216227868      0.09691701632497
  H           0.62825622546136     -3.43051542615698      0.17399570063294
  H           0.89498098782395      1.31847839256921      1.88244911635277
  H           2.90214666916214      2.63658977946482      1.27325152973516
  H           4.58754519623194      1.69615067650608     -0.31287585933242
  H           4.23257357110955     -0.57372871302693     -1.28500354216721
  H           2.22403431263279     -1.88199683875072     -0.69966885044128
  H          -0.35386102298307      0.45344705883138     -1.24528068393324
  H          -2.23541105711643      1.82367612407534     -2.11119377817824
  H          -4.38405743355419      1.94001428093705     -0.84993052444481
  H          -4.63929662444266      0.67588098070749      1.28523478318961
  H          -2.74797154688649     -0.68962197868538      2.15594003357028
