! RI BP86 def2-SVP D3BJ TIGHTSCF Opt
%pal
nprocs 6
end

* xyz 0 1
C     -1.471724    2.679438    1.560316
C     -0.664099    2.782809    0.295168
C     -0.609157    4.020342   -0.367919
C      0.137511    4.175493   -1.534035
C      0.845885    3.097926   -2.050633
C      0.811231    1.865019   -1.398910
C      0.065769    1.685803   -0.217252
P      0.034838    0.059538    0.607744
O      0.121360    0.207477    2.117714
C      1.431988   -0.917215   -0.040506
C      1.217940   -1.869242   -1.056369
C      2.271582   -2.624417   -1.571684
C      3.558806   -2.443838   -1.081516
C      3.794354   -1.505476   -0.078815
C      2.746745   -0.728551    0.443768
C      3.057522    0.255852    1.538258
C     -1.505922   -0.782618    0.114646
C     -2.227627   -0.335206   -1.009237
C     -3.405719   -0.966424   -1.408817
C     -3.885919   -2.055813   -0.692953
C     -3.186749   -2.517457    0.420355
C     -1.992743   -1.900533    0.830169
C     -1.290771   -2.430802    2.050657
H     -2.158933    3.526772    1.661194
H     -0.809952    2.679959    2.431390
H     -2.088618    1.776581    1.561715
H     -1.151894    4.877665    0.026042
H      0.168494    5.139481   -2.035092
H      1.431752    3.216843   -2.958610
H      1.380325    1.044413   -1.828657
H      0.222978   -2.039079   -1.460282
H      2.084319   -3.357943   -2.351858
H      4.380710   -3.035955   -1.475419
H      4.808154   -1.382868    0.297956
H      2.578534    1.220421    1.348820
H      4.134016    0.449485    1.602104
H      2.730808   -0.139033    2.504713
H     -1.882768    0.516679   -1.590017
H     -3.950727   -0.602161   -2.276043
H     -4.807535   -2.545153   -0.997022
H     -3.582004   -3.367702    0.973194
H     -0.215679   -2.528038    1.876202
H     -1.655533   -3.429818    2.313950
H     -1.471546   -1.772655    2.905571
*