! RIJONX B3LYP def2-SVP D3BJ TIGHTSCF Opt
%pal
nprocs 6
end

* xyz 0 1
C     -3.030930   -3.284337   -0.981055
C     -1.675783   -3.534638   -0.789495
C     -0.860761   -2.568228   -0.190836
C     -1.377135   -1.323324    0.204382
C     -2.756792   -1.110571    0.037536
C     -3.573966   -2.074717   -0.560551
P     -0.345560   -0.072851    1.032682
C     -0.818498    1.531756    0.301556
C     -0.650901    2.680475    1.094184
C     -0.981274    3.948121    0.607403
C     -1.482524    4.089595   -0.683066
C     -1.649702    2.965072   -1.486501
C     -1.317880    1.697215   -0.998637
C      1.335319   -0.259789    0.319382
C      1.514544   -0.407078   -1.071930
C      2.782242   -0.582438   -1.635364
C      3.908261   -0.612937   -0.822508
C      3.766321   -0.458947    0.554049
C      2.493196   -0.277678    1.127344
C      2.440831   -0.071727    2.595413
O      1.821379    0.776587    3.206409
O      3.203506   -0.979854    3.235048
H     -3.665465   -4.036808   -1.441477
H     -1.250119   -4.487149   -1.094619
H      0.186837   -2.813950   -0.030197
H     -3.218237   -0.185001    0.378649
H     -4.635994   -1.880707   -0.686527
H     -0.252737    2.598069    2.105489
H     -0.842590    4.821950    1.238521
H     -1.738770    5.074866   -1.062935
H     -2.036774    3.071801   -2.496483
H     -1.455551    0.843374   -1.656962
H      0.659512   -0.396557   -1.744749
H      2.884037   -0.695731   -2.712110
H      4.894676   -0.748827   -1.258389
H      4.653498   -0.470264    1.183949
H      3.073783   -0.764774    4.182392
*