37
Coordinates from ORCA-job data/geom_opt/87021/87021 E -1223.638633748598
  C      -3.030930     -3.284337     -0.981055
  C      -1.675783     -3.534638     -0.789495
  C      -0.860761     -2.568228     -0.190836
  C      -1.377135     -1.323324      0.204382
  C      -2.756792     -1.110571      0.037536
  C      -3.573966     -2.074717     -0.560551
  P      -0.345560     -0.072851      1.032682
  C      -0.818498      1.531756      0.301556
  C      -0.650901      2.680475      1.094184
  C      -0.981274      3.948121      0.607403
  C      -1.482524      4.089595     -0.683066
  C      -1.649702      2.965072     -1.486501
  C      -1.317880      1.697215     -0.998637
  C       1.335319     -0.259789      0.319382
  C       1.514544     -0.407078     -1.071930
  C       2.782242     -0.582438     -1.635364
  C       3.908261     -0.612937     -0.822508
  C       3.766321     -0.458947      0.554049
  C       2.493196     -0.277678      1.127344
  C       2.440831     -0.071727      2.595413
  O       1.821379      0.776587      3.206409
  O       3.203506     -0.979854      3.235048
  H      -3.665465     -4.036808     -1.441477
  H      -1.250119     -4.487149     -1.094619
  H       0.186837     -2.813950     -0.030197
  H      -3.218237     -0.185001      0.378649
  H      -4.635994     -1.880707     -0.686527
  H      -0.252737      2.598069      2.105489
  H      -0.842590      4.821950      1.238521
  H      -1.738770      5.074866     -1.062935
  H      -2.036774      3.071801     -2.496483
  H      -1.455551      0.843374     -1.656962
  H       0.659512     -0.396557     -1.744749
  H       2.884037     -0.695731     -2.712110
  H       4.894676     -0.748827     -1.258389
  H       4.653498     -0.470264      1.183949
  H       3.073783     -0.764774      4.182392
37
Coordinates from ORCA-job data/geom_opt/87021/87021 E -1223.643136335006
  C      -3.009864     -3.255105     -1.088340
  C      -1.649966     -3.506561     -0.895032
  C      -0.840284     -2.553265     -0.270394
  C      -1.370565     -1.326302      0.166166
  C      -2.748084     -1.101869     -0.010932
  C      -3.558450     -2.052090     -0.637284
  P      -0.359225     -0.116127      1.085027
  C      -0.827491      1.501106      0.360538
  C      -0.598862      2.641684      1.148477
  C      -0.904282      3.917827      0.666889
  C      -1.452669      4.072108     -0.608622
  C      -1.686571      2.946535     -1.402823
  C      -1.372235      1.671947     -0.922952
  C       1.313362     -0.319342      0.334692
  C       1.467805     -0.554030     -1.043693
  C       2.727529     -0.738507     -1.616426
  C       3.870888     -0.693806     -0.816598
  C       3.744953     -0.457996      0.551304
  C       2.477914     -0.261535      1.127727
  C       2.421067      0.075909      2.580682
  O       1.776568      0.964948      3.088045
  O       3.250589     -0.702802      3.310841
  H      -3.642360     -3.997902     -1.580926
  H      -1.213931     -4.450569     -1.230867
  H       0.216741     -2.786594     -0.120310
  H      -3.206256     -0.175706      0.346032
  H      -4.624187     -1.850895     -0.769894
  H      -0.163492      2.537292      2.146034
  H      -0.715224      4.792516      1.293750
  H      -1.697345      5.069153     -0.983794
  H      -2.113958      3.060172     -2.402229
  H      -1.566014      0.809536     -1.564849
  H       0.591767     -0.607385     -1.692680
  H       2.813947     -0.919720     -2.690653
  H       4.859450     -0.838108     -1.258620
  H       4.638431     -0.411829      1.175599
  H       3.150302     -0.382690      4.226114
37
Coordinates from ORCA-job data/geom_opt/87021/87021 E -1223.644411330780
  C      -3.042270     -3.279514     -1.077834
  C      -1.690845     -3.561087     -0.849046
  C      -0.862920     -2.608208     -0.249588
  C      -1.365904     -1.349306      0.129829
  C      -2.734970     -1.092020     -0.075222
  C      -3.561411     -2.041437     -0.679087
  P      -0.362213     -0.158346      1.106045
  C      -0.827395      1.474893      0.383727
  C      -0.583817      2.601907      1.186076
  C      -0.861606      3.886224      0.709283
  C      -1.397783      4.060247     -0.572288
  C      -1.642438      2.941631     -1.379229
  C      -1.353080      1.659264     -0.907132
  C       1.311052     -0.347013      0.316704
  C       1.460547     -0.557149     -1.062750
  C       2.720347     -0.704616     -1.641757
  C       3.869034     -0.647949     -0.841020
  C       3.742388     -0.429854      0.529989
  C       2.474222     -0.258890      1.107417
  C       2.393175      0.116558      2.556260
  O       1.635172      0.931677      3.020214
  O       3.264828     -0.575368      3.326732
  H      -3.689337     -4.022780     -1.556369
  H      -1.274001     -4.530928     -1.141986
  H       0.187252     -2.856568     -0.072841
  H      -3.163709     -0.134933      0.238014
  H      -4.620487     -1.811511     -0.838811
  H      -0.152559      2.468400      2.182837
  H      -0.662318      4.754940      1.346083
  H      -1.623878      5.066360     -0.943125
  H      -2.057667      3.068754     -2.385196
  H      -1.549006      0.796842     -1.551355
  H       0.574428     -0.614306     -1.699518
  H       2.806404     -0.865465     -2.721670
  H       4.862117     -0.765982     -1.286714
  H       4.631599     -0.372742      1.161969
  H       3.147045     -0.241727      4.231356
37
Coordinates from ORCA-job data/geom_opt/87021/87021 E -1223.644190430963
  C      -3.097193     -3.304964     -1.124669
  C      -1.730739     -3.559678     -0.968736
  C      -0.897296     -2.610635     -0.371725
  C      -1.407897     -1.376578      0.072792
  C      -2.791622     -1.147181     -0.058793
  C      -3.623235     -2.094570     -0.658272
  P      -0.397424     -0.221819      1.104714
  C      -0.820973      1.448441      0.415153
  C      -0.659218      2.534859      1.291292
  C      -0.896684      3.840087      0.850962
  C      -1.304657      4.075997     -0.466362
  C      -1.462026      2.997649     -1.346167
  C      -1.215828      1.693845     -0.911344
  C       1.288323     -0.403939      0.310971
  C       1.439714     -0.723328     -1.046125
  C       2.701431     -0.873281     -1.619801
  C       3.851388     -0.721307     -0.833574
  C       3.723808     -0.399470      0.515673
  C       2.453857     -0.212991      1.084705
  C       2.368114      0.292205      2.492656
  O       1.554606      1.092811      2.883267
  O       3.362266     -0.172777      3.280835
  H      -3.747999     -4.045390     -1.598105
  H      -1.306141     -4.506878     -1.314990
  H       0.165185     -2.833625     -0.254234
  H      -3.222502     -0.212609      0.308491
  H      -4.692312     -1.884853     -0.760485
  H      -0.323422      2.345838      2.313217
  H      -0.765225      4.676653      1.543720
  H      -1.497711      5.096991     -0.808691
  H      -1.773658      3.173386     -2.380269
  H      -1.335862      0.862141     -1.608677
  H       0.549759     -0.862893     -1.662651
  H       2.788408     -1.113837     -2.683210
  H       4.844469     -0.846664     -1.273505
  H       4.609540     -0.272423      1.141537
  H       3.268755      0.270786      4.140395
37
Coordinates from ORCA-job data/geom_opt/87021/87021 E -1223.644400653678
  C      -3.093383     -3.292243     -1.072970
  C      -1.753896     -3.596805     -0.814648
  C      -0.910736     -2.646725     -0.233378
  C      -1.384883     -1.363450      0.094632
  C      -2.742383     -1.077721     -0.149306
  C      -3.583315     -2.027480     -0.732049
  P      -0.384062     -0.186957      1.117540
  C      -0.835978      1.470738      0.404173
  C      -0.763876      2.567707      1.279661
  C      -1.036705      3.858894      0.818602
  C      -1.393949      4.069600     -0.515923
  C      -1.472176      2.980823     -1.391479
  C      -1.192955      1.690806     -0.936513
  C       1.306440     -0.350686      0.315281
  C       1.446726     -0.598776     -1.058667
  C       2.701468     -0.750877     -1.648019
  C       3.857357     -0.688677     -0.862599
  C       3.744783     -0.455495      0.505147
  C       2.484516     -0.260737      1.095478
  C       2.435544      0.118469      2.541430
  O       1.639426      0.890623      3.020051
  O       3.496883     -0.340980      3.235160
  H      -3.750368     -4.033884     -1.532346
  H      -1.358078     -4.583981     -1.066744
  H       0.131001     -2.906826     -0.036458
  H      -3.143325     -0.097083      0.115680
  H      -4.630260     -1.776153     -0.920372
  H      -0.470876      2.397343      2.315552
  H      -0.973493      4.703784      1.508966
  H      -1.614364      5.078031     -0.873822
  H      -1.750131      3.136934     -2.436921
  H      -1.256782      0.848997     -1.627795
  H       0.551066     -0.674031     -1.676455
  H       2.776902     -0.924931     -2.723993
  H       4.842491     -0.821476     -1.314937
  H       4.634551     -0.411007      1.135352
  H       3.446819      0.054229      4.122686
37
Coordinates from ORCA-job data/geom_opt/87021/87021 E -1223.645294771286
  C      -3.081679     -3.246947     -1.117812
  C      -1.759944     -3.582308     -0.817084
  C      -0.916562     -2.650949     -0.205966
  C      -1.374851     -1.360485      0.111160
  C      -2.712898     -1.041419     -0.185794
  C      -3.555232     -1.972619     -0.797373
  P      -0.361123     -0.192172      1.116741
  C      -0.826819      1.462400      0.423858
  C      -0.738139      2.564758      1.290682
  C      -1.036996      3.852026      0.834622
  C      -1.438581      4.052946     -0.486769
  C      -1.540212      2.961368     -1.353289
  C      -1.235926      1.675350     -0.901908
  C       1.325142     -0.359661      0.323854
  C       1.458361     -0.670515     -1.040274
  C       2.710143     -0.834720     -1.635600
  C       3.870333     -0.714569     -0.870266
  C       3.768350     -0.417367      0.486111
  C       2.510697     -0.221141      1.085474
  C       2.480343      0.208582      2.513632
  O       1.630597      0.907085      3.020257
  O       3.499112     -0.306435      3.229777
  H      -3.739018     -3.974142     -1.597655
  H      -1.379252     -4.577177     -1.057615
  H       0.111928     -2.937753      0.024294
  H      -3.102163     -0.050671      0.059470
  H      -4.587866     -1.699041     -1.023713
  H      -0.414564      2.408506      2.320137
  H      -0.958599      4.700032      1.518031
  H      -1.677772      5.057381     -0.841085
  H      -1.858461      3.111084     -2.387113
  H      -1.327869      0.831793     -1.588121
  H       0.562871     -0.794019     -1.649636
  H       2.777356     -1.062021     -2.701483
  H       4.851372     -0.851833     -1.328308
  H       4.666075     -0.323209      1.096823
  H       3.401847      0.047862      4.131937
37
Coordinates from ORCA-job data/geom_opt/87021/87021 E -1223.646165978032
  C      -3.112169     -3.255625     -1.137823
  C      -1.793528     -3.603635     -0.832653
  C      -0.943765     -2.680732     -0.218109
  C      -1.389605     -1.383853      0.094087
  C      -2.726199     -1.053839     -0.200087
  C      -3.575584     -1.977222     -0.813753
  P      -0.366703     -0.233974      1.116678
  C      -0.814314      1.437077      0.446132
  C      -0.767311      2.513612      1.347254
  C      -1.047776      3.812975      0.914182
  C      -1.384358      4.051460     -0.420520
  C      -1.434337      2.984752     -1.324126
  C      -1.147696      1.687291     -0.895144
  C       1.315541     -0.403069      0.310879
  C       1.447203     -0.747118     -1.044206
  C       2.699330     -0.901705     -1.640431
  C       3.861443     -0.729237     -0.884059
  C       3.757787     -0.385831      0.461756
  C       2.498124     -0.202622      1.059378
  C       2.447202      0.291832      2.466820
  O       1.565838      0.977986      2.932111
  O       3.512494     -0.095339      3.198334
  H      -3.776125     -3.977599     -1.619981
  H      -1.420589     -4.603186     -1.072245
  H       0.081267     -2.976656      0.018386
  H      -3.107634     -0.061230      0.050401
  H      -4.607239     -1.694175     -1.039675
  H      -0.490702      2.325399      2.386505
  H      -1.005366      4.642034      1.625677
  H      -1.608054      5.066901     -0.758192
  H      -1.695825      3.164210     -2.370588
  H      -1.192338      0.863020     -1.610101
  H       0.549726     -0.906724     -1.643574
  H       2.766483     -1.159980     -2.700619
  H       4.845030     -0.855453     -1.343032
  H       4.654470     -0.241401      1.065377
  H       3.405279      0.311651      4.074960
37
Coordinates from ORCA-job data/geom_opt/87021/87021 E -1223.646465440836
  C      -3.121063     -3.242857     -1.163691
  C      -1.813573     -3.608939     -0.831611
  C      -0.962156     -2.695257     -0.206229
  C      -1.393774     -1.389390      0.088938
  C      -2.719225     -1.040929     -0.232201
  C      -3.571108     -1.955869     -0.855586
  P      -0.365762     -0.255489      1.125501
  C      -0.807852      1.423129      0.469479
  C      -0.792842      2.488338      1.384494
  C      -1.074248      3.790515      0.960098
  C      -1.378622      4.042337     -0.379906
  C      -1.395887      2.986388     -1.297712
  C      -1.108813      1.686579     -0.876961
  C       1.313698     -0.423297      0.311357
  C       1.440534     -0.802082     -1.034875
  C       2.690375     -0.955327     -1.636279
  C       3.856043     -0.747369     -0.893976
  C       3.757275     -0.369592      0.442719
  C       2.499871     -0.187424      1.045125
  C       2.449964      0.338718      2.439518
  O       1.551276      1.006475      2.898678
  O       3.546270      0.025773      3.160775
  H      -3.786584     -3.957640     -1.653991
  H      -1.451363     -4.615293     -1.058281
  H       0.053445     -3.004709      0.052537
  H      -3.089602     -0.041066      0.004216
  H      -4.593866     -1.658917     -1.102641
  H      -0.539840      2.289437      2.427097
  H      -1.057171      4.611206      1.682069
  H      -1.602261      5.059818     -0.711009
  H      -1.631447      3.176604     -2.348263
  H      -1.126204      0.870461     -1.602266
  H       0.541223     -0.989712     -1.623015
  H       2.752841     -1.240692     -2.689647
  H       4.837722     -0.872957     -1.356777
  H       4.655775     -0.196453      1.036155
  H       3.436954      0.455481      4.026156
37
Coordinates from ORCA-job data/geom_opt/87021/87021 E -1223.646905358266
  C      -3.126133     -3.227503     -1.183916
  C      -1.829627     -3.607801     -0.823009
  C      -0.980698     -2.700096     -0.186836
  C      -1.400998     -1.385565      0.088223
  C      -2.714974     -1.022925     -0.260941
  C      -3.566336     -1.933267     -0.893105
  P      -0.362864     -0.274077      1.139671
  C      -0.796825      1.413100      0.500692
  C      -0.854902      2.461717      1.431858
  C      -1.140687      3.765152      1.013222
  C      -1.374316      4.033538     -0.337857
  C      -1.316512      2.993468     -1.272878
  C      -1.025923      1.693356     -0.856732
  C       1.310302     -0.446511      0.311323
  C       1.427180     -0.865238     -1.024078
  C       2.671780     -1.019085     -1.636207
  C       3.844308     -0.772232     -0.916226
  C       3.755841     -0.355998      0.409366
  C       2.503977     -0.173830      1.022730
  C       2.459396      0.381390      2.403348
  O       1.535255      1.008622      2.869599
  O       3.591075      0.157529      3.103783
  H      -3.790622     -3.937675     -1.682535
  H      -1.475462     -4.620230     -1.035312
  H       0.025629     -3.019721      0.096608
  H      -3.077335     -0.017005     -0.039924
  H      -4.580583     -1.625983     -1.162169
  H      -0.655530      2.250276      2.482788
  H      -1.181801      4.573768      1.747855
  H      -1.600280      5.052010     -0.664849
  H      -1.495030      3.197346     -2.332139
  H      -0.981388      0.889371     -1.594617
  H       0.524495     -1.082661     -1.596304
  H       2.724350     -1.335394     -2.681353
  H       4.821952     -0.898464     -1.387364
  H       4.658286     -0.151645      0.986961
  H       3.475000      0.602260      3.960324
37
Coordinates from ORCA-job data/geom_opt/87021/87021 E -1223.647606235836
  C      -3.144875     -3.206102     -1.212493
  C      -1.880300     -3.623001     -0.782358
  C      -1.028706     -2.727573     -0.134125
  C      -1.409307     -1.388799      0.080536
  C      -2.691670     -0.990125     -0.335893
  C      -3.548837     -1.889513     -0.978025
  P      -0.352281     -0.311199      1.148191
  C      -0.778780      1.390824      0.548197
  C      -0.927764      2.410334      1.499572
  C      -1.223378      3.717114      1.097023
  C      -1.372384      4.016702     -0.259266
  C      -1.220193      3.005798     -1.216141
  C      -0.921622      1.703413     -0.814300
  C       1.313463     -0.482516      0.303661
  C       1.424597     -0.958574     -1.013586
  C       2.664307     -1.107885     -1.637182
  C       3.840965     -0.797660     -0.949397
  C       3.759368     -0.323125      0.356414
  C       2.512815     -0.146819      0.981920
  C       2.468753      0.456602      2.338350
  O       1.512052      1.026853      2.814135
  O       3.637492      0.360528      3.007901
  H      -3.812968     -3.906611     -1.720043
  H      -1.555820     -4.653776     -0.948830
  H      -0.049632     -3.075187      0.207756
  H      -3.026145      0.034060     -0.161448
  H      -4.538621     -1.554799     -1.300257
  H      -0.793465      2.176131      2.555628
  H      -1.337293      4.503651      1.847734
  H      -1.604314      5.037765     -0.574040
  H      -1.330426      3.235433     -2.279384
  H      -0.799902      0.922459     -1.568109
  H       0.522631     -1.225143     -1.564840
  H       2.708633     -1.470319     -2.667709
  H       4.814543     -0.919676     -1.429817
  H       4.663437     -0.066209      0.909906
  H       3.505626      0.826943      3.850316
37
Coordinates from ORCA-job data/geom_opt/87021/87021 E -1223.648622113941
  C      -3.170312     -3.174466     -1.236820
  C      -1.963505     -3.641046     -0.701127
  C      -1.104668     -2.761722     -0.042791
  C      -1.413779     -1.390961      0.073990
  C      -2.636542     -0.941887     -0.449796
  C      -3.505518     -1.826252     -1.099556
  P      -0.328536     -0.356734      1.156008
  C      -0.753446      1.362801      0.612545
  C      -1.048644      2.330476      1.581235
  C      -1.365001      3.639829      1.202293
  C      -1.384351      3.993062     -0.148800
  C      -1.082486      3.034609     -1.124489
  C      -0.765969      1.730254     -0.744158
  C       1.323627     -0.522580      0.284305
  C       1.429273     -1.077865     -1.002697
  C       2.661825     -1.225859     -1.641242
  C       3.840871     -0.835167     -1.001161
  C       3.766314     -0.282868      0.273822
  C       2.527553     -0.108770      0.914593
  C       2.485763      0.557663      2.238025
  O       1.495949      1.045257      2.740229
  O       3.686240      0.616758      2.855825
  H      -3.846583     -3.862138     -1.751220
  H      -1.694171     -4.696901     -0.791171
  H      -0.174155     -3.145629      0.386315
  H      -2.916901      0.108718     -0.356078
  H      -4.449939     -1.453234     -1.505143
  H      -1.015293      2.056653      2.636581
  H      -1.594553      4.386494      1.967107
  H      -1.630421      5.016412     -0.445131
  H      -1.089861      3.307855     -2.183069
  H      -0.524621      0.990305     -1.510371
  H       0.530010     -1.408134     -1.522268
  H       2.696771     -1.651122     -2.647975
  H       4.808635     -0.955468     -1.493482
  H       4.670446      0.038363      0.792213
  H       3.535976      1.103294      3.683457
37
Coordinates from ORCA-job data/geom_opt/87021/87021 E -1223.649812468505
  C      -3.199289     -3.121633     -1.273814
  C      -2.098483     -3.650695     -0.586292
  C      -1.227452     -2.800891      0.092276
  C      -1.411544     -1.401402      0.076284
  C      -2.523715     -0.887802     -0.605418
  C      -3.410903     -1.742590     -1.272250
  P      -0.293417     -0.420793      1.176923
  C      -0.721511      1.317777      0.703330
  C      -1.235943      2.192842      1.666221
  C      -1.576532      3.505719      1.322542
  C      -1.395652      3.956094      0.012960
  C      -0.869925      3.091886     -0.956019
  C      -0.532914      1.782929     -0.610000
  C       1.334974     -0.578430      0.262171
  C       1.433116     -1.251851     -0.967358
  C       2.652442     -1.400280     -1.631360
  C       3.828228     -0.889692     -1.076079
  C       3.761991     -0.221617      0.142905
  C       2.537238     -0.051288      0.810139
  C       2.503216      0.708283      2.081333
  O       1.493768      1.076344      2.644402
  O       3.725661      0.993063      2.583650
  H      -3.889179     -3.785713     -1.801065
  H      -1.926995     -4.730459     -0.571588
  H      -0.383211     -3.227684      0.643266
  H      -2.703570      0.188308     -0.624102
  H      -4.271433     -1.320717     -1.798767
  H      -1.357333      1.845080      2.694205
  H      -1.978629      4.180235      2.083155
  H      -1.658058      4.983231     -0.255054
  H      -0.719147      3.442913     -1.980425
  H      -0.114394      1.115929     -1.367149
  H       0.537844     -1.672010     -1.425730
  H       2.677334     -1.918952     -2.593730
  H       4.785489     -1.007991     -1.588897
  H       4.662197      0.191853      0.598794
  H       3.565729      1.510004      3.390537
37
Coordinates from ORCA-job data/geom_opt/87021/87021 E -1223.650457285365
  C      -3.192878     -3.092710     -1.288527
  C      -2.211915     -3.638434     -0.449724
  C      -1.344163     -2.796704      0.242770
  C      -1.409200     -1.393991      0.090132
  C      -2.396327     -0.864520     -0.749362
  C      -3.283415     -1.708955     -1.430244
  P      -0.257986     -0.428327      1.168677
  C      -0.709062      1.312531      0.739654
  C      -1.343730      2.116306      1.692448
  C      -1.726155      3.424552      1.381076
  C      -1.466183      3.946071      0.112357
  C      -0.821425      3.156886     -0.846098
  C      -0.445162      1.848621     -0.532908
  C       1.352258     -0.592874      0.237110
  C       1.443853     -1.328107     -0.956852
  C       2.655659     -1.491959     -1.632197
  C       3.828192     -0.928916     -1.128507
  C       3.769879     -0.200639      0.056865
  C       2.555457     -0.024890      0.741530
  C       2.550311      0.760235      2.001458
  O       1.563523      1.035604      2.652584
  O       3.782754      1.134377      2.411543
  H      -3.884971     -3.748356     -1.822669
  H      -2.136960     -4.721778     -0.325639
  H      -0.596298     -3.231208      0.913558
  H      -2.477385      0.215684     -0.884661
  H      -4.049241     -1.274265     -2.077855
  H      -1.530841      1.716373      2.695149
  H      -2.220490      4.041072      2.136032
  H      -1.760723      4.970308     -0.130062
  H      -0.611600      3.563626     -1.838677
  H       0.059965      1.239301     -1.285024
  H       0.548943     -1.779196     -1.385342
  H       2.673790     -2.060144     -2.566015
  H       4.777919     -1.054080     -1.652977
  H       4.671198      0.246776      0.475247
  H       3.642407      1.631730      3.235149
37
Coordinates from ORCA-job data/geom_opt/87021/87021 E -1223.651197364728
  C      -3.180491     -3.042631     -1.333848
  C      -2.301303     -3.617673     -0.407053
  C      -1.431048     -2.808503      0.322281
  C      -1.396082     -1.412711      0.122266
  C      -2.282444     -0.850525     -0.806931
  C      -3.170557     -1.660191     -1.525330
  P      -0.234055     -0.464091      1.211577
  C      -0.689441      1.280449      0.791629
  C      -1.484088      1.996892      1.695838
  C      -1.876115      3.308323      1.414515
  C      -1.469340      3.921829      0.226498
  C      -0.668570      3.218519     -0.679677
  C      -0.281504      1.905300     -0.399449
  C       1.353346     -0.633323      0.243841
  C       1.426912     -1.451378     -0.894103
  C       2.621911     -1.629331     -1.594864
  C       3.789596     -0.990466     -1.173170
  C       3.745385     -0.175844     -0.044053
  C       2.548218      0.008920      0.668239
  C       2.559204      0.878607      1.875397
  O       1.594340      1.123267      2.566420
  O       3.775312      1.392437      2.160954
  H      -3.874395     -3.672397     -1.896785
  H      -2.305965     -4.698927     -0.244502
  H      -0.761146     -3.261264      1.059945
  H      -2.279719      0.227363     -0.978508
  H      -3.856879     -1.201232     -2.242414
  H      -1.784248      1.523656      2.635065
  H      -2.494978      3.856039      2.130327
  H      -1.772752      4.949143      0.007523
  H      -0.345729      3.695338     -1.609273
  H       0.341166      1.360167     -1.112442
  H       0.528585     -1.956112     -1.251161
  H       2.632087     -2.267708     -2.482519
  H       4.726603     -1.123995     -1.718810
  H       4.643243      0.331986      0.308068
  H       3.654940      1.940065      2.954506
37
Coordinates from ORCA-job data/geom_opt/87021/87021 E -1223.651387084049
  C      -3.156868     -3.038625     -1.338034
  C      -2.329490     -3.606498     -0.362012
  C      -1.464870     -2.797573      0.376390
  C      -1.388461     -1.411577      0.138156
  C      -2.227230     -0.854069     -0.838807
  C      -3.106314     -1.661941     -1.568327
  P      -0.221266     -0.450819      1.212227
  C      -0.692555      1.286180      0.785713
  C      -1.515691      1.974966      1.688359
  C      -1.923535      3.284526      1.423240
  C      -1.502696      3.926729      0.254902
  C      -0.674649      3.251506     -0.647305
  C      -0.272926      1.938721     -0.385136
  C       1.357558     -0.628156      0.236697
  C       1.417344     -1.455004     -0.896126
  C       2.607834     -1.647410     -1.601000
  C       3.781260     -1.012321     -1.189452
  C       3.749687     -0.188764     -0.066203
  C       2.557357      0.007632      0.651683
  C       2.579334      0.883063      1.855728
  O       1.619446      1.135623      2.549466
  O       3.800214      1.390358      2.130973
  H      -3.843936     -3.668055     -1.909694
  H      -2.367775     -4.682053     -0.169015
  H      -0.833414     -3.243454      1.151267
  H      -2.194951      0.219075     -1.035091
  H      -3.754022     -1.207976     -2.323439
  H      -1.827893      1.480144      2.611811
  H      -2.565052      3.808840      2.136640
  H      -1.817100      4.953340      0.048862
  H      -0.341514      3.749318     -1.562195
  H       0.369389      1.416476     -1.097809
  H       0.512482     -1.955155     -1.241882
  H       2.611232     -2.295197     -2.481784
  H       4.714555     -1.156160     -1.738983
  H       4.653543      0.316280      0.274091
  H       3.690972      1.938028      2.926085
37
Coordinates from ORCA-job data/geom_opt/87021/87021 E -1223.651476281032
  C      -3.139407     -3.032924     -1.334594
  C      -2.410439     -3.573946     -0.270343
  C      -1.551008     -2.760615      0.471027
  C      -1.384023     -1.401672      0.149104
  C      -2.127122     -0.868872     -0.916197
  C      -2.999749     -1.678694     -1.650194
  P      -0.198083     -0.447820      1.209949
  C      -0.684276      1.286544      0.806796
  C      -1.593690      1.912518      1.673245
  C      -2.026453      3.218050      1.430795
  C      -1.541127      3.922635      0.324651
  C      -0.626464      3.311634     -0.537866
  C      -0.202105      2.000974     -0.300450
  C       1.365138     -0.631033      0.216203
  C       1.413327     -1.485268     -0.898378
  C       2.596218     -1.691356     -1.612557
  C       3.771825     -1.041992     -1.231790
  C       3.752049     -0.191395     -0.128898
  C       2.568599      0.017134      0.600396
  C       2.601557      0.911945      1.788479
  O       1.654061      1.156814      2.501833
  O       3.820181      1.441957      2.029709
  H      -3.820818     -3.664660     -1.910342
  H      -2.521200     -4.630154     -0.010804
  H      -0.995181     -3.182290      1.314579
  H      -2.026173      0.186080     -1.175804
  H      -3.572354     -1.245980     -2.475029
  H      -1.958777      1.370806      2.550102
  H      -2.736059      3.691425      2.114512
  H      -1.872138      4.947511      0.137890
  H      -0.241983      3.857586     -1.403747
  H       0.508928      1.530863     -0.983743
  H       0.506153     -1.994615     -1.221669
  H       2.592289     -2.361904     -2.475983
  H       4.698417     -1.195852     -1.789781
  H       4.659324      0.324910      0.184060
  H       3.720561      1.991653      2.824837
37
Coordinates from ORCA-job data/geom_opt/87021/87021 E -1223.651535621731
  C      -3.141977     -3.027854     -1.321830
  C      -2.406063     -3.571481     -0.264144
  C      -1.540082     -2.760215      0.472634
  C      -1.375915     -1.400972      0.152868
  C      -2.126844     -0.864842     -0.905727
  C      -3.004159     -1.672429     -1.635667
  P      -0.193516     -0.439504      1.211882
  C      -0.688531      1.290357      0.797999
  C      -1.593894      1.919187      1.667012
  C      -2.034464      3.220867      1.417490
  C      -1.563333      3.917740      0.300429
  C      -0.654241      3.303146     -0.565538
  C      -0.221449      1.996877     -0.320364
  C       1.371591     -0.621020      0.217288
  C       1.413883     -1.458425     -0.910780
  C       2.595576     -1.665073     -1.626087
  C       3.777978     -1.035894     -1.231983
  C       3.765310     -0.203672     -0.115564
  C       2.582228      0.008235      0.613119
  C       2.619601      0.890044      1.809668
  O       1.665999      1.154972      2.507960
  O       3.847161      1.386544      2.075917
  H      -3.826812     -3.658163     -1.894960
  H      -2.515396     -4.628121     -0.005891
  H      -0.977296     -3.183902      1.310123
  H      -2.026756      0.191200     -1.162727
  H      -3.582382     -1.238331     -2.455796
  H      -1.948875      1.382887      2.551305
  H      -2.740335      3.696819      2.103224
  H      -1.900979      4.939260      0.107570
  H      -0.280548      3.842652     -1.440087
  H       0.485515      1.524464     -1.006055
  H       0.502526     -1.954798     -1.242496
  H       2.586196     -2.320498     -2.500969
  H       4.704078     -1.191605     -1.790149
  H       4.678027      0.296109      0.208643
  H       3.748177      1.935437      2.871678
37
Coordinates from ORCA-job data/geom_opt/87021/87021 E -1223.651562094189
  C      -3.147564     -3.018533     -1.308405
  C      -2.417301     -3.563132     -0.247597
  C      -1.544363     -2.755404      0.485449
  C      -1.369666     -1.399163      0.159280
  C      -2.114180     -0.862167     -0.903590
  C      -2.997150     -1.665965     -1.630230
  P      -0.184108     -0.437355      1.215614
  C      -0.686756      1.290305      0.800326
  C      -1.612522      1.908617      1.655265
  C      -2.062888      3.205774      1.399605
  C      -1.582379      3.908371      0.290174
  C      -0.653201      3.304368     -0.561882
  C      -0.210215      2.002731     -0.310305
  C       1.378924     -0.617219      0.215324
  C       1.416196     -1.447612     -0.918165
  C       2.595152     -1.653670     -1.637719
  C       3.781527     -1.032685     -1.241897
  C       3.774463     -0.208383     -0.119721
  C       2.593629      0.004442      0.611899
  C       2.634117      0.881557      1.810841
  O       1.677571      1.159949      2.500276
  O       3.866220      1.359450      2.090097
  H      -3.837591     -3.645696     -1.878817
  H      -2.536049     -4.617358      0.016396
  H      -0.985235     -3.179382      1.325022
  H      -2.002581      0.191470     -1.166637
  H      -3.570715     -1.232214     -2.453827
  H      -1.976204      1.367707      2.533276
  H      -2.784782      3.673596      2.074203
  H      -1.928489      4.926117      0.092224
  H      -0.272082      3.848021     -1.430638
  H       0.512081      1.538450     -0.985478
  H       0.502513     -1.939396     -1.250980
  H       2.580839     -2.302088     -2.517797
  H       4.705780     -1.188890     -1.802963
  H       4.689993      0.284556      0.207307
  H       3.767015      1.910830      2.884064
37
Coordinates from ORCA-job data/geom_opt/87021/87021 E -1223.651574996882
  C      -3.151594     -3.014390     -1.295337
  C      -2.423143     -3.558319     -0.233045
  C      -1.545859     -2.751677      0.496169
  C      -1.365460     -1.397412      0.164670
  C      -2.107267     -0.861541     -0.900780
  C      -2.994480     -1.664088     -1.623439
  P      -0.176837     -0.434385      1.217241
  C      -0.686195      1.291717      0.802023
  C      -1.631351      1.900618      1.641933
  C      -2.088542      3.194260      1.380461
  C      -1.595555      3.902884      0.280498
  C      -0.646260      3.308792     -0.556285
  C      -0.196335      2.010648     -0.298810
  C       1.383793     -0.612938      0.212483
  C       1.416436     -1.436932     -0.925492
  C       2.593044     -1.642533     -1.648910
  C       3.782721     -1.028483     -1.251879
  C       3.780516     -0.211385     -0.124291
  C       2.601717      0.001679      0.610204
  C       2.646162      0.873256      1.812633
  O       1.688076      1.164581      2.494874
  O       3.883072      1.330528      2.104654
  H      -3.845749     -3.640176     -1.862323
  H      -2.546562     -4.610897      0.035349
  H      -0.988190     -3.175126      1.336940
  H      -1.989123      0.190024     -1.168924
  H      -3.566447     -1.231866     -2.448974
  H      -2.006039      1.355188      2.512543
  H      -2.826086      3.654637      2.043187
  H      -1.947669      4.917697      0.077917
  H      -0.255049      3.857170     -1.417542
  H       0.541278      1.553889     -0.962390
  H       0.500822     -1.924623     -1.259586
  H       2.574297     -2.285054     -2.533244
  H       4.705219     -1.184714     -1.815792
  H       4.698158      0.276002      0.205279
  H       3.784480      1.882966      2.897982
37
Coordinates from ORCA-job data/geom_opt/87021/87021 E -1223.651578836580
  C      -3.152274     -3.014713     -1.289346
  C      -2.421779     -3.558143     -0.228134
  C      -1.543766     -2.751054      0.499571
  C      -1.364364     -1.396763      0.167577
  C      -2.108084     -0.861454     -0.896885
  C      -2.996221     -1.664499     -1.617945
  P      -0.174286     -0.432248      1.217332
  C      -0.686229      1.293245      0.801396
  C      -1.640702      1.897793      1.633647
  C      -2.099243      3.190588      1.370312
  C      -1.598275      3.902757      0.276320
  C      -0.639728      3.312922     -0.552942
  C      -0.188543      2.015541     -0.293849
  C       1.384805     -0.611046      0.210692
  C       1.415246     -1.432349     -0.929060
  C       2.591156     -1.638136     -1.653757
  C       3.782098     -1.027066     -1.255906
  C       3.781907     -0.212891     -0.126060
  C       2.603759      0.000386      0.609400
  C       2.649973      0.869441      1.813793
  O       1.691393      1.165915      2.493025
  O       3.888926      1.317500      2.111106
  H      -3.847371     -3.640734     -1.854931
  H      -2.544079     -4.610786      0.040525
  H      -0.984712     -3.174368      1.339539
  H      -1.990540      0.190042     -1.165424
  H      -3.569733     -1.232855     -2.442721
  H      -2.022058      1.349719      2.499680
  H      -2.844141      3.647558      2.027153
  H      -1.951601      4.916880      0.072384
  H      -0.242281      3.864106     -1.409544
  H       0.556029      1.561959     -0.951735
  H       0.498702     -1.917694     -1.263940
  H       2.570736     -2.278487     -2.539623
  H       4.703942     -1.183329     -1.820879
  H       4.700282      0.272262      0.204726
  H       3.791055      1.869999      2.904497
37
Coordinates from ORCA-job data/geom_opt/87021/87021 E -1223.651580812536
  C      -3.151324     -3.016697     -1.284739
  C      -2.417323     -3.559238     -0.225393
  C      -1.539768     -2.750813      0.501183
  C      -1.363898     -1.395896      0.169891
  C      -2.111197     -0.861430     -0.892519
  C      -2.999135     -1.665912     -1.612381
  P      -0.173162     -0.429371      1.216930
  C      -0.686842      1.295503      0.799584
  C      -1.648377      1.896737      1.626014
  C      -2.107421      3.189160      1.361731
  C      -1.599729      3.904400      0.272898
  C      -0.634246      3.317754     -0.550551
  C      -0.182630      2.020664     -0.290827
  C       1.384668     -0.609087      0.209231
  C       1.412952     -1.427765     -0.932371
  C       2.588563     -1.634653     -1.657468
  C       3.780791     -1.027262     -1.258070
  C       3.782528     -0.215556     -0.126395
  C       2.604745     -0.001165      0.609423
  C       2.653061      0.865961      1.815411
  O       1.694461      1.167302      2.492332
  O       3.894027      1.305494      2.116640
  H      -3.846154     -3.643831     -1.849387
  H      -2.536553     -4.612396      0.042617
  H      -0.978260     -3.173738      1.339765
  H      -1.996755      0.190577     -1.160308
  H      -3.575350     -1.234859     -2.435570
  H      -2.035438      1.346313      2.488010
  H      -2.857985      3.643381      2.013992
  H      -1.953338      4.918296      0.068442
  H      -0.231676      3.871383     -1.403172
  H       0.567060      1.569455     -0.944436
  H       0.495274     -1.910042     -1.268457
  H       2.566737     -2.273117     -2.544645
  H       4.702247     -1.184269     -1.823461
  H       4.701788      0.267017      0.205614
  H       3.797656      1.857697      2.910440
37
Coordinates from ORCA-job data/geom_opt/87021/87021 E -1223.651581284477
  C      -3.150865     -3.017879     -1.283951
  C      -2.413534     -3.560529     -0.226905
  C      -1.536506     -2.751382      0.499401
  C      -1.364212     -1.395508      0.170046
  C      -2.114905     -0.860900     -0.889843
  C      -3.002464     -1.666176     -1.609395
  P      -0.173669     -0.428369      1.216497
  C      -0.687041      1.296427      0.798294
  C      -1.648781      1.897866      1.624401
  C      -2.107328      3.190462      1.360092
  C      -1.598920      3.905655      0.271551
  C      -0.633394      3.318679     -0.551595
  C      -0.182261      2.021431     -0.291907
  C       1.384136     -0.608668      0.208952
  C       1.412266     -1.426606     -0.933224
  C       2.588157     -1.633974     -1.657779
  C       3.780624     -1.027897     -1.257205
  C       3.782480     -0.216848     -0.125082
  C       2.604435     -0.001904      0.610212
  C       2.652808      0.864799      1.816561
  O       1.694002      1.166842      2.492843
  O       3.893977      1.303051      2.118657
  H      -3.845211     -3.645703     -1.848413
  H      -2.529863     -4.614417      0.039513
  H      -0.972469     -3.174512      1.336190
  H      -2.003511      0.191845     -1.156029
  H      -3.581222     -1.234826     -2.430644
  H      -2.036421      1.347452      2.486145
  H      -2.858034      3.644787      2.012123
  H      -1.951999      4.919741      0.067137
  H      -0.230391      3.872300     -1.404024
  H       0.567398      1.569949     -0.945318
  H       0.494312     -1.907743     -1.270102
  H       2.566319     -2.271843     -2.545385
  H       4.702301     -1.185373     -1.822133
  H       4.701951      0.264775      0.207662
  H       3.797836      1.854994      2.912654
