! RIJCOSX M062X def2-TZVP D3ZERO NormalSCF
%pal
nprocs 6
end

* xyz 0 1
  C          -3.93523400552807     -2.41317031266310     -0.74495659984252
  C          -2.55001714927805     -3.04475635942547     -0.94447944870601
  C          -1.50940541810701     -2.45228678771356      0.02016957128242
  C          -1.43217936635603     -0.91674892099913     -0.09298510151934
  C          -2.83056798369862     -0.29232978106216      0.09988843665684
  C          -3.86590882927518     -0.88439346937551     -0.86886923621596
  P          -0.25063360285096     -0.20420618434547      1.19397238135564
  C           0.07082755328769      1.54733273482668      0.54377795428129
  C          -0.72514734130887      2.57512890584050      1.39740797409600
  C          -0.88899111891898      3.93667941011824      0.68269982294560
  C           0.32846687016747      4.24498526273178     -0.19941595446628
  C           0.46245127653118      3.20389931958905     -1.33840995857852
  C          -0.14142590004734      1.83200023475601     -0.95365353856378
  C           1.37007364571653     -1.08197233428127      0.78110765536548
  C           2.46510699160094     -0.64414442710224      1.77567567298304
  C           3.75514619172457     -1.46086287904550      1.59543253892970
  C           4.26322268574568     -1.40302502637620      0.14687682165352
  C           3.17335977000133     -1.83773113259932     -0.84442190618385
  C           1.88999150771179     -1.00829333333889     -0.66447451479609
  H          -4.66272512682144     -2.83223205335173     -1.47230200151422
  H          -4.31473207535969     -2.67921524509138      0.26782628600574
  H          -2.60140016297797     -4.14732448269139     -0.81826203749047
  H          -2.21533733273019     -2.86473761577331     -1.99147327135667
  H          -1.77302470783793     -2.72567985456610      1.06788891857277
  H          -0.51681289287053     -2.90662551191392     -0.18021580357884
  H          -1.07483389922257     -0.66480936469458     -1.11651697828402
  H          -2.78091109693539      0.80958078144644     -0.02299993535173
  H          -3.15702666826346     -0.47207343939641      1.14933723831848
  H          -3.58706530442163     -0.61302136391529     -1.91258787019309
  H          -4.86342243605633     -0.43165954781918     -0.68411253266464
  H           1.15438904729093      1.69527718241920      0.75392786394072
  H          -0.20468399583851      2.70829176394807      2.36938271092182
  H          -1.72590348704356      2.16526541256817      1.65293820533843
  H          -1.05372228325769      4.74121432889559      1.42933818374807
  H          -1.80090893209210      3.92376671169923      0.04576465506280
  H           0.26636599443953      5.27079317197712     -0.61833824045142
  H           1.24065494992263      4.23218613979406      0.43711099212895
  H          -0.03792089771968      3.57592477551331     -2.25807130185933
  H           1.53450064213918      3.07738313734611     -1.60235455518744
  H           0.29826583429920      1.03789721461640     -1.58684099443096
  H          -1.23044164767603      1.82469838480959     -1.17316671003841
  H           1.14014402699931     -2.14924231986981      1.00812192438860
  H           2.69577094538441      0.43448035635475      1.61580664985178
  H           2.08675601706291     -0.72967419319630      2.81630859995010
  H           4.53780293296925     -1.10144171294524      2.29719667568143
  H           3.55217124259104     -2.52110052475843      1.86957756020767
  H           5.17141130727313     -2.03143858465666      0.02785846375950
  H           4.57282435453758     -0.35912604153882     -0.08923914674987
  H           3.54154936160831     -1.75456451737687     -1.88943024697763
  H           2.93636544541776     -2.91367477777489     -0.68061727919260
  H           2.11148016321900      0.05210772295040     -0.91747879580908
  H           1.11128690485249     -1.34732785254261     -1.37972479742364
*