26
Coordinates from ORCA-job data/geom_opt_PO_BP86/521585/521585 E -1104.324862932172
  C          -1.30177737909722      3.62053421195360     -0.58324364829551
  C          -1.37221793540226      3.10257314756922      0.69183220009230
  O          -0.87752743652798      1.83233493468242      0.72186670597696
  C          -0.48081466723545      1.52541393875688     -0.55677772514376
  C          -0.72054738846442      2.59307308204507     -1.39960762715719
  P           0.23997478883023     -0.08329496118399     -0.96175433035497
  O           0.60106489925951     -0.20868654809967     -2.42374872782733
  C          -0.96865499496837     -1.32081782177473     -0.43313491489213
  C          -1.56149349431298     -2.31559904472799     -1.18590727253230
  C          -2.43851911398364     -3.01917350968753     -0.29382523520501
  C          -2.31379884104962     -2.40179808326986      0.93189051755324
  O          -1.42544911681838     -1.36986155316439      0.86128921432185
  C           1.66926084256816     -0.28089388915688      0.12902482554539
  C           2.98473454821700     -0.52068870072148     -0.21710030367651
  C           3.71339517015198     -0.59172049277039      1.01741033407834
  C           2.78931717406519     -0.39019305611287      2.01968175356705
  O           1.54545598259753     -0.20040362244203      1.49460491369241
  H          -1.62688332543441      4.61765980961843     -0.90048026869022
  H          -1.73312792386575      3.49534934944472      1.64803635303047
  H          -0.49852968605442      2.61518599043985     -2.47175126382328
  H          -1.37553827472383     -2.50072746790616     -2.24912650555847
  H          -3.08065450868135     -3.87497806742425     -0.53014758695968
  H          -2.77029340752422     -2.57038720825592      1.91273192680186
  H           3.36053375133398     -0.62932638694510     -1.23997358803509
  H           4.78680343900769     -0.76959494743737      1.14680116917686
  H           2.85528589811305     -0.35397610342958      3.11201808431473
