17
Coordinates from ORCA-job data/geom_opt_PO_BP86/76001/76001 E -761.622520348722
  C          -0.35273964679159      1.54510769852305      1.01171239644614
  O          -1.16928259528478      2.35702022755854      0.19881312673866
  P           0.01437919029607      0.02939661131503      0.01866975206089
  O           0.24612354410553      0.48641259108342     -1.43834794764297
  C          -1.41630081229409     -1.14156904600821      0.00038251288544
  O          -1.26328919265428     -1.92782365130406     -1.15939824769456
  C           1.56798544967720     -0.79866523320990      0.58335347896587
  O           2.63110566799397     -0.03872528413212      0.05528402897652
  H          -0.88402065223685      1.30657389555207      1.95800565277592
  H           0.63318927040360      2.00499253919557      1.27427044523542
  H          -0.80133724186604      2.25337036461047     -0.71159459145314
  H          -2.34501230734963     -0.51718641060894      0.01070788072314
  H          -1.43181976421882     -1.79615014968111      0.89812514925193
  H          -0.93110903358180     -1.30157768226245     -1.84671494352906
  H           1.52723654355616     -1.85203084324569      0.20758897796364
  H           1.64447321110131     -0.83152673123025      1.69138152063115
  H           2.33041536914403      0.22238210384456     -0.84815919233498
