! RI BP86 def2-SVP D3BJ TIGHTSCF Opt
%pal
nprocs 6
end

* xyz 0 1
C      5.190295   -1.759299    0.837978
C      4.194894   -2.526958    1.436820
C      2.948456   -1.962223    1.712470
C      2.677631   -0.626698    1.377435
C      3.695469    0.140675    0.799360
C      4.941932   -0.425312    0.523891
C      1.331013   -0.028287    1.700814
P      0.561082    1.105574    0.529341
O      1.340789    2.389130    0.381555
C      0.360190    0.239743   -1.030041
C     -0.398765   -1.062950   -1.045239
C      0.268040   -2.278628   -0.849047
C     -0.439179   -3.481708   -0.831063
C     -1.819430   -3.482673   -1.017700
C     -2.491002   -2.281617   -1.233079
C     -1.783823   -1.078514   -1.251065
C     -1.077764    1.380602    1.228859
C     -2.097351    2.166185    0.441872
C     -3.445680    1.777706    0.459673
C     -4.405325    2.503317   -0.248202
C     -4.031537    3.634560   -0.968831
C     -2.700538    4.044770   -0.973487
C     -1.739768    3.319743   -0.265566
H      6.162527   -2.195867    0.625614
H      4.391028   -3.564360    1.694876
H      2.187558   -2.576973    2.189045
H      3.537941    1.191267    0.561449
H      5.721659    0.181412    0.070113
H      0.614005   -0.840197    1.871832
H      1.425820    0.499066    2.658044
H     -0.118795    0.928411   -1.737346
H      1.359471    0.063787   -1.447711
H      1.348668   -2.302929   -0.725142
H      0.089927   -4.419418   -0.681221
H     -2.369253   -4.420129   -1.009976
H     -3.565564   -2.281359   -1.397450
H     -2.324536   -0.154509   -1.444826
H     -0.945159    1.885841    2.193497
H     -1.492538    0.391915    1.459087
H     -3.760424    0.901998    1.023658
H     -5.445662    2.189130   -0.232399
H     -4.777489    4.202966   -1.517828
H     -2.407513    4.936172   -1.522619
H     -0.711298    3.676640   -0.271115
*