! RIJCOSX M062X def2-TZVP D3ZERO NormalSCF
%pal
nprocs 6
end

* xyz 0 1
  C          -3.04463567501440     -2.49423240888022     -0.91818214610700
  C          -2.21181342737883     -1.48178742512932     -1.41723298101237
  C          -0.95897543722727     -1.23066137415526     -0.81560575389928
  C          -0.54166654443036     -2.01804107364023      0.27573664147851
  C          -1.38245241795823     -3.03685755486496      0.75317365951535
  C          -2.63628614211052     -3.28367952159491      0.16917482372360
  Cl         -0.85720100263705     -4.01215243877046      2.10985088907628
  P           0.05206304196107      0.15445929116599     -1.51759787855439
  C           1.65658488144384     -0.10978327533122     -0.62781898916580
  C           2.54844959741288     -1.04066131038972     -1.20267440020836
  C           3.76910553886153     -1.31596089251199     -0.56807765814157
  C           4.13286607547957     -0.66251573424109      0.62279667082633
  C           3.24731269090756      0.27261555010872      1.17941987909241
  C           2.01448960846447      0.54978017586051      0.56591339458553
  Cl          4.86325892995573     -2.48411384769606     -1.27803931437151
  C          -0.63455746611608      1.59148618904968     -0.57004545193867
  C          -1.51300389285391      1.44855970011162      0.52222076126021
  C          -1.97917483163071      2.59428425700644      1.18762967578435
  C          -1.58255232625519      3.88257222403370      0.79112926186456
  C          -0.70658925082342      4.01625782336437     -0.29854118658137
  C          -0.24209091244720      2.88362386129414     -0.98360719283794
  Cl         -3.07229290397005      2.40903225660159      2.54403330342098
  H          -4.02340038806616     -2.68204375941424     -1.38545111888985
  H          -2.53431050857201     -0.87569594772660     -2.27844208880283
  H           0.42790312358876     -1.84188322756005      0.76200925248543
  H          -3.27455127820777     -4.08668717023747      0.56335888252485
  H           2.29346132489588     -1.55761423004655     -2.14017883492127
  H           5.09804899558967     -0.88832055954788      1.09714744015643
  H           3.52287011600069      0.78849242566847      2.11206795955845
  H           1.32479180195012      1.27595673867265      1.01957019421827
  H          -1.83290210200056      0.45420902937660      0.86358138831791
  H          -1.96283328144585      4.76202331313989      1.32926087004080
  H          -0.39330453862641      5.02116192119285     -0.62059571487974
  H           0.43338660126022      2.99817899509103     -1.84598523761830
*