30
Coordinates from ORCA-job data/geom_opt/69082/69082 E -883.047898895198
  C          -1.25176896046499      3.13148654267319      0.09014979557257
  C           0.04553545302263      2.33123937344661     -0.03300164661772
  P           0.09468130812317      0.89583334752879      1.16880076040575
  C          -1.24575749092789     -0.15478422928421      0.43744181786685
  C          -2.45651983535991     -0.26765462908337      1.13806904720822
  C          -3.52010423748566     -1.00867235313597      0.61180048493576
  C          -3.37960586935695     -1.65341568687473     -0.61931018265523
  C          -2.17377883397357     -1.55351323258931     -1.32345479970430
  C          -1.11535301870102     -0.80957988852495     -0.79940503775587
  C           1.58619523867254     -0.03108367491587      0.59771511593720
  C           1.76161688900864     -1.34305632658077      1.07795183313428
  C           2.88784220992256     -2.08895591375455      0.73256085283074
  C           3.87463503242807     -1.53262186255952     -0.09000480482691
  C           3.71942537760813     -0.22861861794706     -0.56306014703594
  C           2.58365236725469      0.51629646522363     -0.22449428284855
  H          -1.39311228515268      3.51226535013356      1.11478582728154
  H          -1.24643968928312      3.99585426029092     -0.59329067301838
  H          -2.12808462515807      2.51256481601089     -0.15926271552826
  H           0.91062523462473      2.97390306091370      0.20248491643210
  H           0.18062598041676      1.96189461678630     -1.06377534188055
  H          -2.56303555315168      0.22945983638357      2.10639977142791
  H          -4.45770627204803     -1.08684623860642      1.16845011814199
  H          -4.20702720385695     -2.23777168483144     -1.03017289897328
  H          -2.05892380287289     -2.05981249204346     -2.28566626714489
  H          -0.17391764201804     -0.74122097388039     -1.35038710418733
  H           0.99790625394964     -1.78646293451361      1.72360023458587
  H           2.99959373737149     -3.10904352609250      1.10955717077397
  H           4.76015265621600     -2.11438588734577     -0.35806496197282
  H           4.48420228600070      0.21570726618921     -1.20577337563785
  H           2.48444629519173      1.53099321698354     -0.61362950674686
