! RIJCOSX M062X def2-TZVP D3ZERO NormalSCF
%pal
nprocs 6
end

* xyz 0 1
  C           3.85260713670466     -1.67246215304452     -1.02367288373398
  C           2.70777887893704     -1.17014059217640     -0.13975828125908
  C           1.32330489079975     -1.38800557284458     -0.76683031754499
  P          -0.01724284071973     -0.88020186513110      0.39002454956721
  O           0.07443689716073     -1.52429376363869      1.76439222795857
  C          -1.59934588184740     -1.21138651713867     -0.49300004663607
  C          -2.80815293762026     -0.82595319664141      0.37136058423038
  C          -4.14832721082456     -1.19586840060069     -0.26987604683733
  C           0.10226573355629      0.95046698545030      0.48541515973959
  C           0.04410197066573      1.79372895400684     -0.64307528288210
  C           0.14419572659279      3.18500789253334     -0.48587357527708
  C           0.30276469351090      3.73739484909727      0.79782361897966
  C           0.36091513277609      2.89870972709420      1.92383449333532
  C           0.26090378132411      1.50656962628485      1.76952408404901
  H           3.86477318111169     -1.15378248444183     -2.00556964294933
  H           4.83783035774858     -1.50308054457003     -0.54346663395799
  H           3.76068423959078     -2.76065781534687     -1.22431594941462
  H           2.72271495113492     -1.67927406377539      0.84694878680570
  H           2.84181530860694     -0.08747237517092      0.07573222735711
  H           1.21292028266457     -0.83550003659499     -1.72584082796735
  H           1.15479423119296     -2.46491954372708     -0.98822274500926
  H          -1.60780796929229     -2.29964921118247     -0.72253612889155
  H          -1.59631537681227     -0.67130873964109     -1.46538805220998
  H          -2.69844375663782     -1.32269483237925      1.35858197047993
  H          -2.77335133147148      0.26643496332461      0.57610035722252
  H          -4.28555319671076     -0.68839109957778     -1.24811027355467
  H          -4.99969155339157     -0.90669996377273      0.37939787638947
  H          -4.22145096393722     -2.28903924517890     -0.45018383100559
  H          -0.07990376815994      1.36873881437963     -1.65248578210519
  H           0.09855998041294      3.84277888361478     -1.36757762553574
  H           0.38102566736031      4.82886756690160      0.91900446233308
  H           0.48489956366697      3.33261079083631      2.92812526552847
  H           0.30229418190654      0.81947296305167      2.62951726279585
*