! RI BP86 def2-SVP D3BJ TIGHTSCF Opt
%pal
nprocs 6
end

* xyz 0 1
C     -0.994920   -2.858200    0.137727
C      0.166571   -1.897042   -0.194472
C      0.183145   -1.687688   -1.713031
C      1.484225   -2.570094    0.232790
P     -0.061281   -0.310316    0.796439
O     -0.221903   -0.755843    2.242321
C      1.377823    0.752785    0.614723
C      1.904270    1.166676   -0.614848
C      3.032396    1.990904   -0.674710
C      3.652961    2.416020    0.496381
C      3.145551    2.019062    1.728739
C      2.019203    1.196402    1.785010
C     -1.548822    0.511806    0.211047
C     -1.579478    1.371369   -0.893817
C     -2.773646    1.974817   -1.299203
C     -3.954542    1.730779   -0.603014
C     -3.943133    0.886020    0.502132
C     -2.750054    0.284750    0.905259
H     -1.052352   -3.052959    1.213550
H     -1.955603   -2.434252   -0.170927
H     -0.875516   -3.821702   -0.370165
H      0.182203   -2.647669   -2.242732
H      1.077217   -1.154210   -2.039845
H     -0.691343   -1.125569   -2.050683
H      2.344881   -1.935975   -0.002276
H      1.498924   -2.751648    1.312636
H      1.626438   -3.530448   -0.274741
H      1.447861    0.866524   -1.550581
H      3.426791    2.303076   -1.638735
H      4.529474    3.056735    0.449113
H      3.623198    2.347162    2.648400
H      1.634369    0.893136    2.758616
H     -0.681368    1.591385   -1.458639
H     -2.780605    2.641226   -2.158348
H     -4.881220    2.203516   -0.917482
H     -4.859547    0.697366    1.055378
H     -2.752170   -0.367900    1.777986
*