22
Coordinates from ORCA-job data/geom_opt_P_BP86/143061/143061 E -741.128218232666
  C          -0.36597860861140      1.61008403795154     -0.26328718501511
  N          -1.03180386666254      0.79360277549292      0.76313254815947
  C          -1.62407016594772     -0.38203903749327      0.10781997821989
  N          -0.66219824311681     -1.18164905238119     -0.66563914668210
  C          -0.01064255793570     -0.29914646069011     -1.64530933608795
  N           0.63780573595480      0.87827519971912     -1.04927099714569
  C           1.79319981455858      0.50011936504380     -0.22974954511364
  P           1.38514461879254     -0.64422181935874      1.24941526794100
  C          -0.10420908751399      0.40651159456090      1.82912795050413
  C           0.31640609490366     -1.83809808644868      0.20536196176371
  H           0.11749606249872      2.48301392803820      0.22345294556814
  H          -1.14411781848139      1.98666919296051     -0.96145910243669
  H          -2.41318014915574     -0.02610804806205     -0.58861869531950
  H          -2.09947835328758     -1.02758665598171      0.87589852187931
  H          -0.78740561365297      0.05783413690114     -2.35526233467853
  H           0.74354895317950     -0.88103193031289     -2.21552042926114
  H           2.28119102038031      1.41728977232217      0.16559852797962
  H           2.54446342811814     -0.01385199263150     -0.86778358210693
  H          -0.65285783414800     -0.16882309147047      2.60615312790323
  H           0.28995382669500      1.31958751691081      2.32589269145930
  H           0.99865677397828     -2.46397476034835     -0.40996592086613
  H          -0.21192203054570     -2.52645558472215      0.90001275333561
