46
Coordinates from ORCA-job data/geom_opt/80970/80970 E -1042.507239286419
  C       4.347487     -1.500709      0.366468
  C       3.110497     -2.381526      0.490950
  C       1.950506     -1.851809     -0.351575
  C       1.610596     -0.389510     -0.005306
  C       2.874450      0.482624     -0.148946
  C       4.029911     -0.047849      0.698162
  P       0.253404      0.256272     -1.097790
  C      -1.208829     -0.817736     -0.695416
  C      -1.589000     -0.902979      0.787786
  C      -2.767229     -1.852885      1.009128
  C      -3.973497     -1.459863      0.163114
  C      -3.610642     -1.357249     -1.314205
  C      -2.431140     -0.412050     -1.541034
  C      -0.195720      1.879957     -0.420147
  C      -0.666112      2.854679     -1.315217
  C      -1.028082      4.129635     -0.871618
  C      -0.922907      4.452726      0.477399
  C      -0.455708      3.501442      1.379542
  C      -0.093985      2.226204      0.933054
  H       5.133202     -1.869655      1.035203
  H       4.740764     -1.565038     -0.655530
  H       3.353979     -3.403685      0.179633
  H       2.802282     -2.433340      1.542522
  H       1.084436     -2.502180     -0.184136
  H       2.210573     -1.942994     -1.414767
  H       1.290255     -0.359384      1.041202
  H       2.672889      1.517376      0.151826
  H       3.193261      0.521397     -1.199559
  H       3.772759      0.038629      1.761045
  H       4.920142      0.569767      0.533837
  H      -0.923486     -1.825930     -1.022691
  H      -1.868140      0.083212      1.175197
  H      -0.745803     -1.255375      1.391093
  H      -2.462450     -2.876871      0.760225
  H      -3.045774     -1.851744      2.069061
  H      -4.773961     -2.196163      0.296576
  H      -4.364467     -0.495664      0.510713
  H      -4.478697     -1.005487     -1.883128
  H      -3.358986     -2.353152     -1.699166
  H      -2.748378      0.609165     -1.294084
  H      -2.178887     -0.413422     -2.609084
  H      -0.755431      2.629425     -2.376523
  H      -1.389816      4.867450     -1.582684
  H      -1.203117      5.443416      0.824632
  H      -0.371544      3.749125      2.434457
  H       0.260395      1.511748      1.669778
46
Coordinates from ORCA-job data/geom_opt/80970/80970 E -1042.511071627393
  C       4.325126     -1.494835      0.427183
  C       3.073974     -2.369080      0.546206
  C       1.929960     -1.852141     -0.336500
  C       1.599641     -0.379546     -0.037906
  C       2.863254      0.488801     -0.170617
  C       4.004635     -0.025846      0.715547
  P       0.278333      0.243690     -1.194057
  C      -1.190748     -0.818742     -0.744998
  C      -1.536901     -0.912065      0.748332
  C      -2.729611     -1.848037      0.996907
  C      -3.954432     -1.429796      0.178807
  C      -3.619195     -1.319128     -1.311651
  C      -2.423771     -0.388773     -1.558424
  C      -0.180792      1.856307     -0.463170
  C      -0.724265      2.827792     -1.321567
  C      -1.109396      4.082807     -0.840288
  C      -0.938846      4.396591      0.510054
  C      -0.387738      3.448471      1.375233
  C      -0.017004      2.189276      0.892547
  H       5.106236     -1.855555      1.117866
  H       4.736917     -1.584564     -0.594166
  H       3.312885     -3.410095      0.270703
  H       2.740104     -2.387481      1.599339
  H       1.044028     -2.489103     -0.179627
  H       2.211797     -1.960560     -1.399016
  H       1.250896     -0.319021      1.008808
  H       2.643225      1.536243      0.092464
  H       3.196239      0.495458     -1.223554
  H       3.721085      0.085688      1.777758
  H       4.903761      0.594320      0.561859
  H      -0.916682     -1.831814     -1.090501
  H      -1.788151      0.088269      1.139587
  H      -0.671811     -1.272154      1.328941
  H      -2.445144     -2.881590      0.728186
  H      -2.979061     -1.857935      2.071662
  H      -4.774746     -2.152008      0.329516
  H      -4.319124     -0.452396      0.543173
  H      -4.497297     -0.951509     -1.868889
  H      -3.387363     -2.323448     -1.710156
  H      -2.711147      0.642270     -1.286294
  H      -2.183115     -0.373009     -2.634293
  H      -0.849266      2.606225     -2.384988
  H      -1.532665      4.820927     -1.526376
  H      -1.230309      5.380582      0.886794
  H      -0.249212      3.687523      2.433002
  H       0.405694      1.468990      1.596560
46
Coordinates from ORCA-job data/geom_opt/80970/80970 E -1042.511715229642
  C       4.337150     -1.505692      0.426143
  C       3.079669     -2.371486      0.563385
  C       1.933422     -1.857605     -0.320095
  C       1.615990     -0.378829     -0.040570
  C       2.882969      0.481741     -0.184654
  C       4.026363     -0.030196      0.702013
  P       0.293541      0.239998     -1.210296
  C      -1.188481     -0.818491     -0.744541
  C      -1.540760     -0.907975      0.747414
  C      -2.741929     -1.834854      0.993995
  C      -3.962143     -1.409021      0.169773
  C      -3.618406     -1.309651     -1.320976
  C      -2.416090     -0.386412     -1.564300
  C      -0.174495      1.857504     -0.459721
  C      -0.743612      2.821126     -1.311192
  C      -1.150250      4.067212     -0.824873
  C      -0.975205      4.382699      0.525711
  C      -0.397794      3.441999      1.384699
  C      -0.006853      2.191807      0.896922
  H       5.126664     -1.866499      1.108408
  H       4.736795     -1.606312     -0.600706
  H       3.306430     -3.421095      0.306789
  H       2.749864     -2.368825      1.619565
  H       1.039805     -2.483243     -0.158461
  H       2.209564     -1.973461     -1.384995
  H       1.269387     -0.304528      1.006178
  H       2.661467      1.533473      0.060001
  H       3.206375      0.469787     -1.242067
  H       3.744429      0.090607      1.765355
  H       4.927775      0.587835      0.545996
  H      -0.910551     -1.832873     -1.089272
  H      -1.783468      0.100400      1.126719
  H      -0.676320     -1.265356      1.331204
  H      -2.463264     -2.871309      0.723906
  H      -2.991648     -1.848023      2.069563
  H      -4.795275     -2.116903      0.324184
  H      -4.314522     -0.422529      0.526452
  H      -4.491165     -0.946139     -1.891199
  H      -3.384700     -2.319017     -1.709583
  H      -2.694123      0.647515     -1.288837
  H      -2.163850     -0.365370     -2.638436
  H      -0.865221      2.593702     -2.374577
  H      -1.593942      4.798311     -1.506971
  H      -1.282407      5.360846      0.907119
  H      -0.254468      3.681096      2.442595
  H       0.433284      1.474034      1.592230
46
Coordinates from ORCA-job data/geom_opt/80970/80970 E -1042.511771990107
  C       4.352416     -1.482535      0.437348
  C       3.114823     -2.380963      0.535395
  C       1.970310     -1.872052     -0.351433
  C       1.614761     -0.408023     -0.039877
  C       2.863180      0.485730     -0.138429
  C       4.002915     -0.023973      0.752048
  P       0.297447      0.214013     -1.221264
  C      -1.201219     -0.830010     -0.745950
  C      -1.536150     -0.935257      0.747830
  C      -2.750821     -1.842098      0.994120
  C      -3.971871     -1.379676      0.191829
  C      -3.644155     -1.271588     -1.301464
  C      -2.430297     -0.366189     -1.546329
  C      -0.165136      1.845109     -0.474555
  C      -0.748350      2.795782     -1.330974
  C      -1.160021      4.043827     -0.854962
  C      -0.975275      4.375102      0.490223
  C      -0.381076      3.448051      1.352961
  C       0.015295      2.196169      0.875823
  H       5.145158     -1.844926      1.113764
  H       4.762741     -1.542658     -0.588085
  H       3.368052     -3.419324      0.261181
  H       2.769568     -2.409256      1.585927
  H       1.088050     -2.519990     -0.223535
  H       2.264953     -1.950742     -1.414770
  H       1.246346     -0.369621      1.000606
  H       2.608475      1.524556      0.126245
  H       3.201288      0.507318     -1.191022
  H       3.698898      0.056678      1.812774
  H       4.890567      0.620673      0.633935
  H      -0.937397     -1.841136     -1.110682
  H      -1.753244      0.073908      1.139416
  H      -0.669960     -1.313251      1.314996
  H      -2.495288     -2.878104      0.701952
  H      -2.985788     -1.871695      2.072011
  H      -4.820650     -2.066444      0.351066
  H      -4.294783     -0.388880      0.563017
  H      -4.516089     -0.891821     -1.861022
  H      -3.428926     -2.280464     -1.700774
  H      -2.684647      0.667479     -1.249166
  H      -2.186805     -0.329887     -2.621662
  H      -0.875179      2.551302     -2.389684
  H      -1.616315      4.763443     -1.540214
  H      -1.286626      5.354085      0.864222
  H      -0.228177      3.699829      2.406074
  H       0.469002      1.487508      1.571086
46
Coordinates from ORCA-job data/geom_opt/80970/80970 E -1042.511766074516
  C       4.341068     -1.521972      0.420424
  C       3.078246     -2.372846      0.584652
  C       1.932287     -1.862405     -0.297011
  C       1.632560     -0.375531     -0.037502
  C       2.908122      0.471091     -0.197356
  C       4.048179     -0.042507      0.687894
  P       0.309781      0.242072     -1.220565
  C      -1.185051     -0.819848     -0.748970
  C      -1.520060     -0.932871      0.743024
  C      -2.728459     -1.847144      0.982629
  C      -3.950141     -1.388220      0.180785
  C      -3.621018     -1.279609     -1.311359
  C      -2.416016     -0.363714     -1.551519
  C      -0.176228      1.866444     -0.457470
  C      -0.729894      2.829671     -1.319210
  C      -1.163208      4.068206     -0.838477
  C      -1.030688      4.376572      0.517764
  C      -0.465411      3.436683      1.385755
  C      -0.046514      2.194616      0.903588
  H       5.140666     -1.886134      1.086393
  H       4.719446     -1.633414     -0.612361
  H       3.289187     -3.430057      0.353147
  H       2.756900     -2.343313      1.642150
  H       1.031072     -2.472753     -0.127275
  H       2.200252     -1.991359     -1.362109
  H       1.284550     -0.283414      1.006043
  H       2.691669      1.527120      0.027082
  H       3.221875      0.437186     -1.256855
  H       3.768730      0.086283      1.750031
  H       4.953194      0.567332      0.530331
  H      -0.904859     -1.824303     -1.119103
  H      -1.742226      0.074958      1.134167
  H      -0.651337     -1.304923      1.309202
  H      -2.466198     -2.878988      0.684221
  H      -2.963568     -1.886161      2.059438
  H      -4.798220     -2.074343      0.340921
  H      -4.274376     -0.398228      0.551129
  H      -4.494194     -0.911716     -1.875391
  H      -3.393817     -2.286496     -1.707336
  H      -2.677738      0.665636     -1.248157
  H      -2.168680     -0.318814     -2.625096
  H      -0.814460      2.598596     -2.384744
  H      -1.596531      4.797533     -1.527470
  H      -1.359913      5.347005      0.896669
  H      -0.352703      3.670842      2.447418
  H       0.383726      1.473239      1.600477
46
Coordinates from ORCA-job data/geom_opt/80970/80970 E -1042.511865213420
  C       4.344883     -1.507372      0.416802
  C       3.091194     -2.376032      0.557996
  C       1.943423     -1.863779     -0.321348
  C       1.623927     -0.385628     -0.037369
  C       2.889770      0.478451     -0.177828
  C       4.032426     -0.035702      0.705134
  P       0.299878      0.235842     -1.211560
  C      -1.192079     -0.821893     -0.740388
  C      -1.545564     -0.904627      0.750164
  C      -2.750891     -1.822934      0.995545
  C      -3.965923     -1.391243      0.168583
  C      -3.619061     -1.308082     -1.321409
  C      -2.415919     -0.389461     -1.566297
  C      -0.171450      1.859863     -0.453704
  C      -0.744027      2.818304     -1.308464
  C      -1.161721      4.061453     -0.825122
  C      -0.994654      4.378398      0.525515
  C      -0.411642      3.443099      1.386236
  C      -0.008194      2.196193      0.901829
  H       5.142534     -1.871813      1.085911
  H       4.733933     -1.598802     -0.614236
  H       3.317925     -3.425715      0.305684
  H       2.764100     -2.371808      1.614361
  H       1.049891     -2.489319     -0.164113
  H       2.218355     -1.973755     -1.386788
  H       1.271646     -0.314572      1.006679
  H       2.662103      1.528281      0.066404
  H       3.210729      0.468282     -1.235625
  H       3.747915      0.074483      1.768216
  H       4.931604      0.586156      0.558085
  H      -0.906108     -1.833801     -1.084509
  H      -1.781469      0.108151      1.120166
  H      -0.682705     -1.260690      1.335678
  H      -2.477530     -2.859863      0.725074
  H      -3.000880     -1.837052      2.070132
  H      -4.808303     -2.084890      0.330191
  H      -4.305932     -0.397994      0.516148
  H      -4.488475     -0.953582     -1.900581
  H      -3.383424     -2.321113     -1.696972
  H      -2.689116      0.644889     -1.290630
  H      -2.158133     -0.368920     -2.638442
  H      -0.857827      2.582968     -2.370517
  H      -1.609235      4.788095     -1.508400
  H      -1.311699      5.352884      0.905774
  H      -0.272618      3.684385      2.443547
  H       0.438342      1.480265      1.594447
46
Coordinates from ORCA-job data/geom_opt/80970/80970 E -1042.511865150575
  C       4.341493     -1.504170      0.429808
  C       3.088766     -2.375190      0.564640
  C       1.944185     -1.864600     -0.319915
  C       1.620611     -0.387167     -0.036869
  C       2.885531      0.479302     -0.170577
  C       4.024986     -0.033268      0.717586
  P       0.301548      0.233274     -1.216665
  C      -1.191608     -0.823781     -0.749763
  C      -1.527313     -0.933774      0.743127
  C      -2.736458     -1.848095      0.985297
  C      -3.958213     -1.391055      0.182232
  C      -3.629190     -1.280560     -1.310035
  C      -2.421976     -0.366325     -1.552012
  C      -0.171436      1.858471     -0.464316
  C      -0.746395      2.813023     -1.321904
  C      -1.164674      4.057453     -0.842314
  C      -0.996135      4.379159      0.507036
  C      -0.411429      3.447517      1.370440
  C      -0.007280      2.199229      0.889915
  H       5.136606     -1.867513      1.102582
  H       4.735576     -1.594273     -0.599435
  H       3.318944     -3.424267      0.312733
  H       2.756855     -2.372437      1.619506
  H       1.051186     -2.491890     -0.166609
  H       2.224178     -1.974262     -1.384044
  H       1.262621     -0.317108      1.005287
  H       2.654909      1.528494      0.073667
  H       3.211877      0.470810     -1.226698
  H       3.735442      0.075883      1.779401
  H       4.923844      0.590063      0.574667
  H      -0.916481     -1.830245     -1.117543
  H      -1.750914      0.072766      1.136874
  H      -0.660046     -1.308287      1.310476
  H      -2.474348     -2.881448      0.691005
  H      -2.973627     -1.881554      2.062384
  H      -4.803608     -2.081864      0.340480
  H      -4.286703     -0.402638      0.553881
  H      -4.503143     -0.907942     -1.870787
  H      -3.406548     -2.287655     -1.708845
  H      -2.684103      0.664587     -1.253266
  H      -2.177276     -0.327411     -2.626664
  H      -0.861134      2.574068     -2.383033
  H      -1.613499      4.781495     -1.527513
  H      -1.313702      5.354661      0.884336
  H      -0.271894      3.692600      2.426818
  H       0.439976      1.485926      1.584628
46
Coordinates from ORCA-job data/geom_opt/80970/80970 E -1042.511871380302
  C       4.343944     -1.503308      0.423076
  C       3.092434     -2.376084      0.557762
  C       1.946328     -1.865044     -0.324407
  C       1.621483     -0.388569     -0.037912
  C       2.885210      0.479772     -0.170907
  C       4.026123     -0.033476      0.714858
  P       0.300493      0.232828     -1.215609
  C      -1.192729     -0.824006     -0.745305
  C      -1.535523     -0.919371      0.746865
  C      -2.743576     -1.834095      0.992468
  C      -3.962326     -1.388654      0.178398
  C      -3.625869     -1.293657     -1.313251
  C      -2.420217     -0.378413     -1.558567
  C      -0.171295      1.857790     -0.460200
  C      -0.740967      2.815635     -1.317680
  C      -1.158552      4.059681     -0.836607
  C      -0.994301      4.377731      0.514155
  C      -0.414460      3.442866      1.377362
  C      -0.011059      2.194931      0.895361
  H       5.140791     -1.867433      1.093322
  H       4.736257     -1.590350     -0.607113
  H       3.323393     -3.424520      0.304005
  H       2.761756     -2.375557      1.613031
  H       1.054005     -2.493470     -0.171848
  H       2.225303     -1.971891     -1.389108
  H       1.263918     -0.321089      1.004530
  H       2.653148      1.528120      0.075511
  H       3.210269      0.473759     -1.227454
  H       3.737386      0.072604      1.777209
  H       4.924054      0.591353      0.572841
  H      -0.911954     -1.833052     -1.101668
  H      -1.763406      0.090960      1.128432
  H      -0.670035     -1.285368      1.322365
  H      -2.477331     -2.869718      0.710128
  H      -2.986044     -1.857257      2.068621
  H      -4.807165     -2.079304      0.340098
  H      -4.294755     -0.396935      0.537552
  H      -4.497926     -0.930321     -1.882938
  H      -3.397866     -2.304415     -1.699564
  H      -2.686645      0.654606     -1.271356
  H      -2.169843     -0.349433     -2.632230
  H      -0.851923      2.579002     -2.379724
  H      -1.603458      4.786310     -1.521609
  H      -1.311275      5.352914      0.892717
  H      -0.278163      3.685176      2.434791
  H       0.432371      1.478755      1.589597
46
Coordinates from ORCA-job data/geom_opt/80970/80970 E -1042.511871672964
  C       4.343247     -1.505956      0.422001
  C       3.090194     -2.375869      0.560513
  C       1.943838     -1.864286     -0.320934
  C       1.622467     -0.386601     -0.036891
  C       2.887747      0.478960     -0.173404
  C       4.028973     -0.034933      0.711547
  P       0.300921      0.235108     -1.213877
  C      -1.192043     -0.823146     -0.744827
  C      -1.537728     -0.916754      0.746754
  C      -2.745127     -1.832601      0.991266
  C      -3.962703     -1.389965      0.173944
  C      -3.623247     -1.297054     -1.317106
  C      -2.418397     -0.380526     -1.561357
  C      -0.171198      1.859614     -0.457648
  C      -0.746873      2.815323     -1.313508
  C      -1.165107      4.058843     -0.831657
  C      -0.995378      4.378467      0.518051
  C      -0.409381      3.445834      1.379456
  C      -0.005315      2.198349      0.896796
  H       5.140553     -1.870480      1.091447
  H       4.733511     -1.595708     -0.608715
  H       3.318646     -3.425307      0.308717
  H       2.761224     -2.372469      1.616294
  H       1.050417     -2.490514     -0.165757
  H       2.220947     -1.973946     -1.385815
  H       1.266276     -0.316239      1.005791
  H       2.658101      1.528194      0.071417
  H       3.211224      0.470323     -1.230407
  H       3.742153      0.073745      1.774127
  H       4.927980      0.587695      0.566868
  H      -0.908739     -1.832147     -1.099256
  H      -1.767695      0.093796      1.126345
  H      -0.673009     -1.280836      1.324552
  H      -2.476976     -2.868285      0.711052
  H      -2.989872     -1.854443      2.066912
  H      -4.807060     -2.081297      0.335115
  H      -4.297092     -0.398083      0.530774
  H      -4.494629     -0.936084     -1.889283
  H      -3.393022     -2.308152     -1.701144
  H      -2.686864      0.652535     -1.276311
  H      -2.165785     -0.352928     -2.634511
  H      -0.862213      2.577209     -2.374730
  H      -1.614875      4.783849     -1.515175
  H      -1.312824      5.353260      0.897183
  H      -0.268650      3.689591      2.435959
  H       0.443381      1.483915      1.589430
46
Coordinates from ORCA-job data/geom_opt/80970/80970 E -1042.511871987415
  C       4.343351     -1.504936      0.422429
  C       3.090872     -2.375931      0.559476
  C       1.944642     -1.864514     -0.322264
  C       1.621958     -0.387315     -0.037254
  C       2.886645      0.479331     -0.172243
  C       4.027759     -0.034386      0.713007
  P       0.300730      0.234494     -1.214480
  C      -1.192277     -0.823556     -0.745272
  C      -1.536424     -0.918209      0.746584
  C      -2.744181     -1.833485      0.991702
  C      -3.962326     -1.389483      0.175943
  C      -3.624343     -1.295615     -1.315396
  C      -2.419169     -0.379614     -1.560220
  C      -0.171323      1.859037     -0.458634
  C      -0.744397      2.815576     -1.315354
  C      -1.162276      4.059371     -0.833899
  C      -0.994858      4.378340      0.516271
  C      -0.411643      3.444801      1.378557
  C      -0.007928      2.197031      0.896287
  H       5.140560     -1.869403      1.092048
  H       4.734278     -1.593518     -0.608152
  H       3.320349     -3.424995      0.306966
  H       2.761297     -2.373703      1.615084
  H       1.051626     -2.491562     -0.168050
  H       2.222468     -1.973221     -1.387064
  H       1.264919     -0.318036      1.005220
  H       2.656051      1.528185      0.073359
  H       3.210835      0.471864     -1.229036
  H       3.740245      0.073215      1.775517
  H       4.926393      0.589028      0.569287
  H      -0.909598     -1.832289     -1.100936
  H      -1.765275      0.092165      1.127373
  H      -0.671318     -1.283414      1.323128
  H      -2.476982     -2.869152      0.710456
  H      -2.987887     -1.855929      2.067584
  H      -4.806931     -2.080461      0.337467
  H      -4.295807     -0.397684      0.533907
  H      -4.496145     -0.933695     -1.886372
  H      -3.395186     -2.306582     -1.700474
  H      -2.686807      0.653404     -1.274168
  H      -2.167639     -0.351454     -2.633621
  H      -0.857785      2.577965     -2.376912
  H      -1.609890      4.785149     -1.518041
  H      -1.312025      5.353354      0.895113
  H      -0.272905      3.688053      2.435448
  H       0.438346      1.481776      1.589624
