46
Coordinates from ORCA-job data/geom_opt/80970/80970 E -1042.511871987415
  C           4.34335106547302     -1.50493602927167      0.42242859447032
  C           3.09087236734944     -2.37593113527117      0.55947620792881
  C           1.94464202667137     -1.86451357829209     -0.32226403149860
  C           1.62195764026716     -0.38731458783992     -0.03725393231802
  C           2.88664527779189      0.47933108322919     -0.17224256589315
  C           4.02775850432110     -0.03438600992610      0.71300726371258
  P           0.30072987091131      0.23449414440036     -1.21448008269144
  C          -1.19227743020637     -0.82355599054539     -0.74527183375654
  C          -1.53642377446896     -0.91820902696550      0.74658441310638
  C          -2.74418108512562     -1.83348497479481      0.99170154728313
  C          -3.96232584884326     -1.38948257806321      0.17594269374155
  C          -3.62434280309997     -1.29561531016860     -1.31539630001861
  C          -2.41916858801902     -0.37961431949072     -1.56022042864574
  C          -0.17132338310810      1.85903732520419     -0.45863423457972
  C          -0.74439654610437      2.81557643129084     -1.31535386376933
  C          -1.16227566818869      4.05937099581568     -0.83389892265062
  C          -0.99485789317219      4.37833962540821      0.51627092944205
  C          -0.41164342064505      3.44480104291103      1.37855656382804
  C          -0.00792768019326      2.19703092248555      0.89628734384563
  H           5.14056022810226     -1.86940306473038      1.09204845773085
  H           4.73427814092813     -1.59351759474229     -0.60815175998176
  H           3.32034922668370     -3.42499485364100      0.30696554869415
  H           2.76129651336858     -2.37370266445364      1.61508430162189
  H           1.05162644198058     -2.49156199289277     -0.16805043151191
  H           2.22246839877661     -1.97322124130422     -1.38706430007566
  H           1.26491862135172     -0.31803647254918      1.00521967334022
  H           2.65605133746008      1.52818459659670      0.07335863203972
  H           3.21083469827065      0.47186439347437     -1.22903601970986
  H           3.74024468138219      0.07321531886522      1.77551745274191
  H           4.92639275694390      0.58902767601362      0.56928701779362
  H          -0.90959786494199     -1.83228875611503     -1.10093576673022
  H          -1.76527509389982      0.09216508277912      1.12737293212806
  H          -0.67131832782755     -1.28341392467248      1.32312843145501
  H          -2.47698193245295     -2.86915195103552      0.71045584571124
  H          -2.98788655648053     -1.85592888509270      2.06758449658890
  H          -4.80693066045333     -2.08046080762391      0.33746722563895
  H          -4.29580745073832     -0.39768437476292      0.53390732578720
  H          -4.49614484556955     -0.93369469954514     -1.88637219452270
  H          -3.39518638030076     -2.30658150615026     -1.70047381746734
  H          -2.68680692222934      0.65340417808260     -1.27416778750307
  H          -2.16763933748459     -0.35145390474122     -2.63362065263409
  H          -0.85778545828109      2.57796546067077     -2.37691173574161
  H          -1.60988955343391      4.78514888540226     -1.51804063716014
  H          -1.31202465787786      5.35335382785505      0.89511340440117
  H          -0.27290475013491      3.68805277886976      2.43544767241960
  H           0.43834611524764      1.48177646532735      1.58962432340914
