! RIJCOSX M062X def2-TZVP D3ZERO NormalSCF
%pal
nprocs 6
end

* xyz 0 1
  C          -0.17646433861530     -2.70797405919609      0.03895245282321
  P          -0.08431519990748     -1.28059606539080      1.23909012608782
  C           1.40987582241233     -0.37053830693112      0.64263627129941
  C           1.65894759352244      0.90331416681243      1.20614681995911
  C           2.78875036184193      1.64434674606661      0.83507580620885
  C           3.70547348898653      1.11750593086068     -0.09327113730684
  C           3.47755202697690     -0.15139979752417     -0.64734064860738
  C           2.33648624296922     -0.88971491341066     -0.28549581109305
  C          -1.42481863791247     -0.21080292423170      0.52206911573479
  C          -1.25525736038980      0.56414173384714     -0.64592305419425
  C          -2.31820588161195      1.32826413866575     -1.15138971149508
  C          -3.56427928855896      1.32584652094553     -0.49926597897402
  C          -3.74220008419650      0.55907790196794      0.66401162032056
  C          -2.67550663301149     -0.19923550662794      1.17509429852263
  H          -0.10479947146984     -2.38620033270428     -1.02025663948858
  H          -1.15229340988885     -3.20962430798550      0.19214420679018
  H           0.62366469608023     -3.44239189889125      0.26172507650873
  H           0.94860095707577      1.31986654996759      1.93895255908584
  H           2.96010559503757      2.63822944273706      1.27695123906235
  H           4.59685961818788      1.69588132884390     -0.38065191977810
  H           4.19024054114288     -0.57244002793123     -1.37361985505746
  H           2.17330392744481     -1.87790652045439     -0.74009292877309
  H          -0.27963636115174      0.57264021256107     -1.15652126022139
  H          -2.17406607044638      1.93133924155220     -2.06150355360087
  H          -4.39608201502885      1.92794585565589     -0.89638912090883
  H          -4.71353013947191      0.55888350322515      1.18263241404773
  H          -2.80840398001697     -0.78845661242979      2.09710261304773
*