42
Coordinates from ORCA-job data/geom_opt/3333592/3333592 E -1169.090669402123
  C           4.74446805378282     -0.51303263755823      1.52528254862171
  N           4.35412458605710      0.18907403850978      0.32237972908591
  C           5.33135666807320      0.96134157757412     -0.41302709180318
  C           3.04850909937079      0.12616590129962     -0.12073204331974
  C           2.06621894639609     -0.61898894029245      0.57942270452095
  C           0.75016715405221     -0.67430968005946      0.12961174014929
  C           0.34061888701700     -0.00270012922689     -1.03360154518446
  C           1.31629905852371      0.72277382990597     -1.73697690029697
  C           2.63457197542879      0.79938791172072     -1.29758508705428
  P          -1.38091700339535      0.00845514497843     -1.68090383369070
  C          -2.08764350778006     -1.47100016405673     -0.82170232778713
  C          -1.85351744916756     -2.72569145687208     -1.41183136703653
  C          -2.33714964804724     -3.89464801202318     -0.82200403968091
  C          -3.08010563394779     -3.82672974219943      0.36172979327005
  C          -3.32926648336346     -2.58418528249007      0.95010479451560
  C          -2.83459873833726     -1.41375052949449      0.36517450376724
  C          -2.15294592821880      1.38346778158111     -0.71206240436783
  C          -1.49379738539025      2.08837169018592      0.30649574664801
  C          -2.13986480302326      3.12923522278320      0.98166869385940
  C          -3.45269418680856      3.47628513068239      0.65242622038881
  C          -4.11738231597735      2.78237469405419     -0.36481427004441
  C          -3.46799199309924      1.75245857232478     -1.04743330793510
  H           5.81294284786041     -0.34730114446142      1.71381724818046
  H           4.58161757111177     -1.60393020713420      1.44281602312559
  H           4.18627469454833     -0.16191345678425      2.41345403385339
  H           5.46448322409495      0.59103117451473     -1.44685693510209
  H           5.05471792366931      2.03038869216629     -0.47793739822915
  H           6.30303457591652      0.89706578103310      0.09329972141770
  H           2.32950144561889     -1.16237234818008      1.48606499754945
  H           0.02442504865331     -1.25642859779632      0.70194075880145
  H           1.03570872967287      1.24719244615625     -2.65551055262498
  H           3.34762929987606      1.37985263483526     -1.88148318615584
  H          -1.28196353190718     -2.78309529981336     -2.34300668925374
  H          -2.14116574826288     -4.86218600832439     -1.29186241586380
  H          -3.46658716305110     -4.74025450166426      0.82103589530502
  H          -3.90977702191244     -2.52273602604074      1.87467424502354
  H          -3.02873641512145     -0.44932256398915      0.83837162981487
  H          -0.47043576607242      1.81888201901496      0.57473253745185
  H          -1.61321224724488      3.66973193183687      1.77297322035235
  H          -3.95632351379944      4.28870452248389      1.18273584885667
  H          -5.14270040237277      3.05109231979426     -0.63282737389392
  H          -3.98789290342340      1.22124171102534     -1.85051286523454
