42
Coordinates from ORCA-job data/geom_opt/3333592/3333592 E -1169.084850675384
  C       4.943869     -0.721571      1.317512
  N       4.410580      0.319845      0.440858
  C       5.392785      0.992233     -0.407820
  C       3.088677      0.212880     -0.008016
  C       2.157121     -0.642555      0.602022
  C       0.822963     -0.741861      0.169084
  C       0.349649      0.026396     -0.895185
  C       1.260687      0.893890     -1.507968
  C       2.591800      0.986883     -1.068082
  P      -1.354552     -0.024875     -1.530523
  C      -2.083949     -1.487528     -0.723146
  C      -1.874891     -2.742764     -1.322596
  C      -2.402600     -3.909379     -0.762085
  C      -3.151773     -3.841810      0.408361
  C      -3.372142     -2.609432      1.016771
  C      -2.843344     -1.442417      0.455456
  C      -2.177187      1.383460     -0.715621
  C      -1.616659      2.127037      0.333488
  C      -2.309386      3.198015      0.907964
  C      -3.574082      3.545546      0.442005
  C      -4.147963      2.823463     -0.599533
  C      -3.454944      1.753847     -1.173418
  H       5.989206     -0.523010      1.579958
  H       4.906180     -1.703132      0.832162
  H       4.399391     -0.758131      2.267121
  H       5.489338      0.487276     -1.375344
  H       5.128381      2.043451     -0.564786
  H       6.383269      1.000229      0.061124
  H       2.438406     -1.264471      1.446326
  H       0.171602     -1.430409      0.700984
  H       0.948067      1.524804     -2.338410
  H       3.226699      1.696080     -1.589810
  H      -1.291019     -2.824967     -2.237938
  H      -2.226982     -4.868366     -1.242307
  H      -3.563868     -4.747245      0.845577
  H      -3.956924     -2.550998      1.931242
  H      -3.034180     -0.501890      0.965982
  H      -0.633577      1.888098      0.731387
  H      -1.855468      3.759584      1.720592
  H      -4.110077      4.378306      0.889197
  H      -5.134701      3.090033     -0.968816
  H      -3.928402      1.205453     -1.986228
42
Coordinates from ORCA-job data/geom_opt/3333592/3333592 E -1169.089038422767
  C       4.853876     -0.707431      1.351263
  N       4.358852      0.316852      0.446080
  C       5.343555      0.977729     -0.394636
  C       3.052670      0.219524     -0.013846
  C       2.113747     -0.641980      0.592280
  C       0.793025     -0.722642      0.143777
  C       0.344540      0.039864     -0.943700
  C       1.276560      0.887454     -1.564278
  C       2.592485      0.980767     -1.110185
  P      -1.354431     -0.013323     -1.612578
  C      -2.059929     -1.472234     -0.760863
  C      -1.836622     -2.736306     -1.335630
  C      -2.341361     -3.895826     -0.742070
  C      -3.095696     -3.809852      0.431244
  C      -3.335235     -2.560786      1.008364
  C      -2.817567     -1.402329      0.419174
  C      -2.169283      1.372182     -0.734711
  C      -1.573268      2.098657      0.308214
  C      -2.249492      3.159346      0.920777
  C      -3.537220      3.505560      0.505422
  C      -4.144121      2.791454     -0.531346
  C      -3.461585      1.741380     -1.150106
  H       5.894755     -0.493227      1.628717
  H       4.822640     -1.716106      0.894828
  H       4.276618     -0.722148      2.288883
  H       5.467942      0.468188     -1.370196
  H       5.071001      2.029633     -0.573131
  H       6.319647      0.990486      0.108712
  H       2.390218     -1.266949      1.442013
  H       0.117808     -1.403469      0.666233
  H       0.980641      1.495911     -2.423387
  H       3.256383      1.665016     -1.639246
  H      -1.258331     -2.822964     -2.260268
  H      -2.153121     -4.868344     -1.204065
  H      -3.499285     -4.714964      0.892937
  H      -3.924471     -2.484553      1.925925
  H      -3.016071     -0.440334      0.897492
  H      -0.569351      1.848245      0.659069
  H      -1.766794      3.713270      1.730193
  H      -4.065682      4.333307      0.985905
  H      -5.149224      3.058681     -0.867603
  H      -3.948821      1.202261     -1.968117
42
Coordinates from ORCA-job data/geom_opt/3333592/3333592 E -1169.090076326689
  C       4.793987     -0.631370      1.425691
  N       4.337450      0.317804      0.431041
  C       5.341349      0.932562     -0.413260
  C       3.037556      0.215740     -0.041271
  C       2.076497     -0.599703      0.604430
  C       0.763544     -0.671499      0.145644
  C       0.340541      0.041842     -0.987313
  C       1.300306      0.826588     -1.650129
  C       2.610883      0.920258     -1.194882
  P      -1.366039      0.004646     -1.663688
  C      -2.062278     -1.464254     -0.796713
  C      -1.843828     -2.725002     -1.379873
  C      -2.328655     -3.887450     -0.777431
  C      -3.060504     -3.807561      0.413291
  C      -3.295226     -2.558453      0.996336
  C      -2.796858     -1.396277      0.398140
  C      -2.169951      1.378493     -0.734178
  C      -1.555429      2.074724      0.318482
  C      -2.222990      3.117780      0.969424
  C      -3.517805      3.476593      0.582060
  C      -4.139790      2.790279     -0.467860
  C      -3.466187      1.759165     -1.125147
  H       5.826276     -0.386670      1.712073
  H       4.772885     -1.680618      1.061953
  H       4.181414     -0.574419      2.340021
  H       5.504664      0.380993     -1.363443
  H       5.068197      1.970793     -0.662102
  H       6.295179      0.973261      0.130952
  H       2.340625     -1.184798      1.485089
  H       0.059837     -1.304180      0.691574
  H       1.020197      1.383455     -2.550052
  H       3.302911      1.548725     -1.754853
  H      -1.284044     -2.798327     -2.317986
  H      -2.143157     -4.859142     -1.244886
  H      -3.449896     -4.716191      0.882200
  H      -3.866382     -2.485625      1.926747
  H      -2.982507     -0.430495      0.873871
  H      -0.547425      1.802524      0.640437
  H      -1.727875      3.649270      1.787743
  H      -4.039633      4.291574      1.092588
  H      -5.150575      3.066208     -0.783038
  H      -3.957263      1.238755     -1.954137
42
Coordinates from ORCA-job data/geom_opt/3333592/3333592 E -1169.090324547625
  C       4.781959     -0.604297      1.453454
  N       4.337158      0.305536      0.418724
  C       5.347481      0.918336     -0.417740
  C       3.037696      0.203454     -0.055687
  C       2.069620     -0.595131      0.603261
  C       0.757974     -0.663632      0.141990
  C       0.341202      0.034622     -1.002531
  C       1.309093      0.797238     -1.678006
  C       2.620798      0.888598     -1.225522
  P      -1.372769      0.016073     -1.674238
  C      -2.074182     -1.460414     -0.808879
  C      -1.826709     -2.720074     -1.382167
  C      -2.305528     -3.886099     -0.782586
  C      -3.059183     -3.810930      0.394640
  C      -3.322903     -2.562578      0.966142
  C      -2.832033     -1.395720      0.371248
  C      -2.169224      1.391023     -0.725968
  C      -1.533846      2.100827      0.304609
  C      -2.198795      3.136702      0.969087
  C      -3.508829      3.474984      0.617049
  C      -4.149863      2.775716     -0.412565
  C      -3.480554      1.751155     -1.083738
  H       5.809222     -0.343390      1.742399
  H       4.768113     -1.667693      1.135003
  H       4.154715     -0.518256      2.355313
  H       5.531195      0.362515     -1.360998
  H       5.068487      1.950000     -0.686194
  H       6.291232      0.971533      0.142164
  H       2.334326     -1.169775      1.489834
  H       0.044824     -1.283025      0.690670
  H       1.030534      1.336308     -2.589019
  H       3.324131      1.494295     -1.795204
  H      -1.248348     -2.784996     -2.309058
  H      -2.097508     -4.857161     -1.240748
  H      -3.443158     -4.722325      0.861111
  H      -3.912390     -2.493795      1.884894
  H      -3.038580     -0.427905      0.832615
  H      -0.513321      1.840466      0.592894
  H      -1.688879      3.680139      1.769749
  H      -4.027664      4.284257      1.138189
  H      -5.172537      3.036019     -0.699908
  H      -3.982955      1.217400     -1.896739
42
Coordinates from ORCA-job data/geom_opt/3333592/3333592 E -1169.090407400666
  C       4.768790     -0.555998      1.488585
  N       4.336890      0.303206      0.405999
  C       5.355142      0.894985     -0.436176
  C       3.037418      0.199723     -0.066750
  C       2.059680     -0.564155      0.618313
  C       0.747278     -0.632414      0.158509
  C       0.339438      0.031811     -1.008705
  C       1.316198      0.758912     -1.708600
  C       2.630079      0.849093     -1.259266
  P      -1.377894      0.022662     -1.674861
  C      -2.077415     -1.462256     -0.815471
  C      -1.841976     -2.714901     -1.408971
  C      -2.318583     -3.886608     -0.819053
  C      -3.055967     -3.823758      0.368484
  C      -3.306748     -2.582805      0.959962
  C      -2.818977     -1.409628      0.375163
  C      -2.171295      1.393790     -0.713477
  C      -1.534098      2.092492      0.323065
  C      -2.195967      3.126980      0.992450
  C      -3.502873      3.473925      0.639698
  C      -4.144950      2.786356     -0.396365
  C      -3.479607      1.762981     -1.073181
  H       5.796043     -0.289460      1.771041
  H       4.748434     -1.633359      1.225913
  H       4.136060     -0.421594      2.380602
  H       5.544853      0.318436     -1.364498
  H       5.080151      1.919826     -0.733302
  H       6.295257      0.958825      0.128025
  H       2.320916     -1.111882      1.522499
  H       0.024250     -1.224660      0.723912
  H       1.041495      1.269247     -2.636894
  H       3.343987      1.423488     -1.847432
  H      -1.275065     -2.767590     -2.343267
  H      -2.121031     -4.852274     -1.291971
  H      -3.436744     -4.739397      0.828005
  H      -3.883107     -2.524730      1.887272
  H      -3.013300     -0.446357      0.850271
  H      -0.515728      1.822518      0.609009
  H      -1.686161      3.662466      1.797986
  H      -4.018961      4.281100      1.165717
  H      -5.165118      3.054577     -0.683616
  H      -3.980791      1.236423     -1.891085
42
Coordinates from ORCA-job data/geom_opt/3333592/3333592 E -1169.090460935486
  C       4.765290     -0.555410      1.494615
  N       4.336537      0.289919      0.399830
  C       5.354764      0.897008     -0.431559
  C       3.037507      0.190478     -0.071969
  C       2.058431     -0.570960      0.613387
  C       0.745862     -0.637809      0.153664
  C       0.339348      0.028378     -1.012801
  C       1.316561      0.754029     -1.712709
  C       2.631434      0.840805     -1.263410
  P      -1.378569      0.026300     -1.675470
  C      -2.079553     -1.459577     -0.817412
  C      -1.833741     -2.711984     -1.407392
  C      -2.310480     -3.884638     -0.819335
  C      -3.056961     -3.822520      0.362119
  C      -3.317257     -2.582303      0.949999
  C      -2.830362     -1.407751      0.367162
  C      -2.169185      1.397147     -0.710921
  C      -1.521852      2.110850      0.308901
  C      -2.183205      3.144857      0.979493
  C      -3.498408      3.475893      0.644440
  C      -4.150864      2.773153     -0.374244
  C      -3.487040      1.749594     -1.052476
  H       5.793616     -0.291274      1.774617
  H       4.740547     -1.635316      1.246019
  H       4.133182     -0.406943      2.385033
  H       5.545877      0.333970     -1.367115
  H       5.078113      1.925342     -0.715314
  H       6.295396      0.954166      0.132039
  H       2.320814     -1.118850      1.517109
  H       0.021129     -1.230180      0.716699
  H       1.040989      1.265192     -2.640054
  H       3.347884      1.412927     -1.850595
  H      -1.258880     -2.763036     -2.336690
  H      -2.105891     -4.850391     -1.288641
  H      -3.437324     -4.738853      0.820179
  H      -3.900873     -2.525799      1.872667
  H      -3.032446     -0.443993      0.838057
  H      -0.496479      1.852509      0.579533
  H      -1.666363      3.692893      1.771774
  H      -4.013676      4.282605      1.171617
  H      -5.177932      3.029559     -0.646563
  H      -3.995939      1.210011     -1.856740
42
Coordinates from ORCA-job data/geom_opt/3333592/3333592 E -1169.090521952832
  C       4.759797     -0.549359      1.502514
  N       4.336739      0.274295      0.389500
  C       5.352530      0.899256     -0.431148
  C       3.037703      0.181681     -0.077981
  C       2.056386     -0.572627      0.612144
  C       0.743309     -0.637514      0.154456
  C       0.338850      0.025830     -1.014814
  C       1.316967      0.746265     -1.718702
  C       2.632674      0.829842     -1.270249
  P      -1.378837      0.028052     -1.673349
  C      -2.080521     -1.458805     -0.818488
  C      -1.831578     -2.709861     -1.410443
  C      -2.307993     -3.884102     -0.825054
  C      -3.056755     -3.824370      0.354963
  C      -3.319773     -2.585893      0.944784
  C      -2.833517     -1.409610      0.364619
  C      -2.167197      1.397169     -0.706930
  C      -1.514253      2.118054      0.304200
  C      -2.174045      3.153445      0.974406
  C      -3.492581      3.478121      0.647162
  C      -4.150883      2.768183     -0.362533
  C      -3.488964      1.743222     -1.040683
  H       5.793311     -0.295558      1.772307
  H       4.719245     -1.633678      1.277632
  H       4.135015     -0.371566      2.393422
  H       5.537248      0.355395     -1.379000
  H       5.077259      1.934735     -0.691422
  H       6.297431      0.941133      0.126265
  H       2.319113     -1.116400      1.518472
  H       0.016472     -1.224851      0.719832
  H       1.041064      1.255461     -2.646917
  H       3.351468      1.397539     -1.859191
  H      -1.254409     -2.758672     -2.338426
  H      -2.101863     -4.849238     -1.295085
  H      -3.436994     -4.741991      0.810830
  H      -3.905018     -2.532265      1.866645
  H      -3.037727     -0.446753      0.836560
  H      -0.486159      1.863787      0.568522
  H      -1.653718      3.707598      1.760198
  H      -4.006456      4.286051      1.174086
  H      -5.180864      3.020493     -0.627747
  H      -4.002477      1.197504     -1.837816
42
Coordinates from ORCA-job data/geom_opt/3333592/3333592 E -1169.090583110921
  C       4.754387     -0.544545      1.508468
  N       4.338660      0.254724      0.375961
  C       5.347347      0.909405     -0.429042
  C       3.039206      0.170482     -0.085512
  C       2.056434     -0.579450      0.608523
  C       0.742896     -0.641470      0.153408
  C       0.339030      0.022091     -1.016823
  C       1.317214      0.740644     -1.723027
  C       2.633413      0.821478     -1.276208
  P      -1.378338      0.026292     -1.671559
  C      -2.080736     -1.459818     -0.818474
  C      -1.834081     -2.710323     -1.412862
  C      -2.311103     -3.884897     -0.828566
  C      -3.058501     -3.825797      0.352632
  C      -3.319533     -2.587910      0.944828
  C      -2.832170     -1.411450      0.365615
  C      -2.164314      1.394450     -0.705403
  C      -1.508668      2.117191      0.302681
  C      -2.165899      3.155037      0.971899
  C      -3.484995      3.479802      0.646575
  C      -4.146501      2.767592     -0.359746
  C      -3.486831      1.740583     -1.036986
  H       5.796258     -0.308364      1.761361
  H       4.688341     -1.633136      1.312448
  H       4.143191     -0.328761      2.401479
  H       5.520048      0.399965     -1.398028
  H       5.073230      1.955699     -0.647715
  H       6.299169      0.926293      0.117616
  H       2.319691     -1.121134      1.516174
  H       0.014942     -1.225084      0.721133
  H       1.040466      1.250868     -2.650468
  H       3.352528      1.389037     -1.865309
  H      -1.258301     -2.758985     -2.341859
  H      -2.107114     -4.849969     -1.300049
  H      -3.439647     -4.743779      0.807569
  H      -3.903636     -2.535236      1.867636
  H      -3.034845     -0.449179      0.839691
  H      -0.480288      1.862688      0.566110
  H      -1.643686      3.710996      1.755349
  H      -3.996946      4.289946      1.172460
  H      -5.177087      3.020419     -0.622861
  H      -4.003229      1.193604     -1.831578
42
Coordinates from ORCA-job data/geom_opt/3333592/3333592 E -1169.090625328790
  C       4.750212     -0.537970      1.513737
  N       4.342297      0.237142      0.362533
  C       5.342516      0.922723     -0.426132
  C       3.041824      0.159385     -0.093815
  C       2.058546     -0.588791      0.602668
  C       0.744577     -0.648147      0.149363
  C       0.339782      0.017069     -1.020097
  C       1.317695      0.736224     -1.726554
  C       2.634228      0.815663     -1.281824
  P      -1.378034      0.022006     -1.672451
  C      -2.081522     -1.462297     -0.819164
  C      -1.839539     -2.713477     -1.414031
  C      -2.318152     -3.886921     -0.828946
  C      -3.063365     -3.826270      0.353897
  C      -3.320226     -2.587497      0.946670
  C      -2.830569     -1.412434      0.366460
  C      -2.161183      1.390702     -0.706682
  C      -1.504495      2.110595      0.302820
  C      -2.158716      3.149905      0.972838
  C      -3.476826      3.479146      0.647044
  C      -4.139630      2.769643     -0.360803
  C      -3.482367      1.741674     -1.038699
  H       5.800579     -0.321042      1.747959
  H       4.656331     -1.629336      1.347977
  H       4.153971     -0.283959      2.407866
  H       5.502795      0.451040     -1.415874
  H       5.069095      1.978260     -0.601261
  H       6.300675      0.914531      0.109511
  H       2.322113     -1.130281      1.510441
  H       0.016512     -1.229834      0.718993
  H       1.040037      1.249265     -2.652277
  H       3.351998      1.386013     -1.870026
  H      -1.266197     -2.764102     -2.344538
  H      -2.117429     -4.852546     -1.300935
  H      -3.446105     -4.743437      0.809433
  H      -3.902586     -2.533283      1.870602
  H      -3.030128     -0.449997      0.841705
  H      -0.477059      1.853185      0.567525
  H      -1.635248      3.703397      1.757325
  H      -3.986675      4.290561      1.173251
  H      -5.169402      3.025731     -0.624425
  H      -4.000329      1.197760     -1.834545
42
Coordinates from ORCA-job data/geom_opt/3333592/3333592 E -1169.090651543867
  C       4.746712     -0.527399      1.520051
  N       4.346655      0.221553      0.349359
  C       5.339020      0.935101     -0.423682
  C       3.044719      0.148560     -0.102770
  C       2.061339     -0.597965      0.595798
  C       0.746889     -0.655500      0.143442
  C       0.340561      0.011012     -1.024647
  C       1.318288      0.731152     -1.730609
  C       2.635266      0.809908     -1.288025
  P      -1.378435      0.016991     -1.675411
  C      -2.082993     -1.465508     -0.820802
  C      -1.846160     -2.717873     -1.415040
  C      -2.326879     -3.889605     -0.828485
  C      -3.069713     -3.826601      0.355872
  C      -3.321732     -2.586444      0.948266
  C      -2.829585     -1.413294      0.366434
  C      -2.158233      1.387231     -0.708951
  C      -1.501181      2.101331      0.304505
  C      -2.152315      3.141008      0.976879
  C      -3.468550      3.477089      0.649802
  C      -4.131677      2.773598     -0.362274
  C      -3.477083      1.745427     -1.042206
  H       5.804811     -0.329921      1.735696
  H       4.624965     -1.619937      1.386630
  H       4.165199     -0.235077      2.413135
  H       5.488157      0.498270     -1.430396
  H       5.066171      1.997224     -0.560273
  H       6.302272      0.905012      0.101910
  H       2.324738     -1.139458      1.503580
  H       0.019222     -1.236126      0.714818
  H       1.039962      1.247228     -2.654557
  H       3.351251      1.383426     -1.875283
  H      -1.275139     -2.771135     -2.346862
  H      -2.129519     -4.855877     -1.300568
  H      -3.454165     -4.742431      0.812589
  H      -3.902223     -2.529646      1.873226
  H      -3.025623     -0.450412      0.842235
  H      -0.475271      1.839605      0.571012
  H      -1.627803      3.689343      1.764296
  H      -3.976237      4.288704      1.177716
  H      -5.159830      3.034446     -0.627565
  H      -3.995853      1.206987     -1.841307
42
Coordinates from ORCA-job data/geom_opt/3333592/3333592 E -1169.090662784794
  C       4.745066     -0.519610      1.523797
  N       4.350022      0.209297      0.338858
  C       5.336505      0.945187     -0.420595
  C       3.046647      0.139864     -0.110018
  C       2.063609     -0.605916      0.589405
  C       0.748647     -0.662502      0.137583
  C       0.340845      0.005587     -1.028677
  C       1.318115      0.727579     -1.733417
  C       2.635561      0.805866     -1.292277
  P      -1.379351      0.013035     -1.678368
  C      -2.084616     -1.468142     -0.821951
  C      -1.850449     -2.721670     -1.414597
  C      -2.332688     -3.891963     -0.826488
  C      -3.074576     -3.826753      0.358258
  C      -3.323951     -2.585372      0.949265
  C      -2.830339     -1.413716      0.365870
  C      -2.156179      1.385144     -0.710873
  C      -1.498746      2.094436      0.305774
  C      -2.147594      3.134208      0.980050
  C      -3.462159      3.475863      0.651902
  C      -4.125444      2.777535     -0.363563
  C      -3.473056      1.749106     -1.045184
  H       5.808360     -0.336902      1.726082
  H       4.603252     -1.611775      1.414048
  H       4.174421     -0.200055      2.415222
  H       5.477755      0.535384     -1.439100
  H       5.063581      2.011124     -0.528063
  H       6.303274      0.899379      0.097247
  H       2.326749     -1.147964      1.496856
  H       0.021755     -1.243548      0.709623
  H       1.039186      1.246856     -2.655440
  H       3.350067      1.382287     -1.878391
  H      -1.280133     -2.777133     -2.346705
  H      -2.136895     -4.858804     -1.297943
  H      -3.460100     -4.741409      0.816208
  H      -3.903658     -2.526223      1.874517
  H      -3.024604     -0.450285      0.841161
  H      -0.474087      1.829216      0.573505
  H      -1.622219      3.678190      1.769849
  H      -3.968163      4.287405      1.181354
  H      -5.152152      3.042250     -0.630398
  H      -3.992260      1.214940     -1.846846
42
Coordinates from ORCA-job data/geom_opt/3333592/3333592 E -1169.090667091153
  C       4.744969     -0.516752      1.524387
  N       4.351952      0.200479      0.331514
  C       5.334169      0.953383     -0.416908
  C       3.047540      0.133673     -0.114932
  C       2.065090     -0.612473      0.584305
  C       0.749681     -0.668615      0.133019
  C       0.340757      0.001524     -1.031354
  C       1.317273      0.725899     -1.734685
  C       2.635068      0.803743     -1.294279
  P      -1.380226      0.010430     -1.680209
  C      -2.086001     -1.469799     -0.822102
  C      -1.852148     -2.724203     -1.412935
  C      -2.335154     -3.893570     -0.823550
  C      -3.077407     -3.826661      0.360739
  C      -3.326383     -2.584418      0.949985
  C      -2.832205     -1.413652      0.365394
  C      -2.154817      1.384171     -0.712087
  C      -1.496828      2.090808      0.306073
  C      -2.144226      3.130963      0.981042
  C      -3.457719      3.475916      0.652160
  C      -4.121375      2.780397     -0.364806
  C      -3.470532      1.751345     -1.047089
  H       5.811013     -0.342629      1.719225
  H       4.592317     -1.608252      1.427336
  H       4.180609     -0.182640      2.414840
  H       5.470854      0.562857     -1.443152
  H       5.060121      2.021200     -0.503793
  H       6.303258      0.897835      0.095478
  H       2.328198     -1.155528      1.491136
  H       0.023592     -1.250866      0.704868
  H       1.037659      1.248194     -2.654789
  H       3.348557      1.382758     -1.879025
  H      -1.281306     -2.781111     -2.344608
  H      -2.139361     -4.860879     -1.293955
  H      -3.463408     -4.740544      0.819688
  H      -3.906338     -2.523646      1.874938
  H      -3.026311     -0.449660      0.839521
  H      -0.472942      1.823358      0.574419
  H      -1.618202      3.672606      1.771969
  H      -3.962558      4.287689      1.182254
  H      -5.147189      3.047430     -0.632608
  H      -3.990042      1.219240     -1.849883
42
Coordinates from ORCA-job data/geom_opt/3333592/3333592 E -1169.090668773870
  C       4.744781     -0.514963      1.524718
  N       4.353020      0.194449      0.326630
  C       5.332580      0.958125     -0.414519
  C       3.047986      0.129646     -0.118062
  C       2.065760     -0.616194      0.581437
  C       0.750019     -0.672031      0.130761
  C       0.340660     -0.000956     -1.032802
  C       1.316704      0.724363     -1.735826
  C       2.634746      0.801673     -1.295876
  P      -1.380711      0.009188     -1.680955
  C      -2.086926     -1.470591     -0.822006
  C      -1.852803     -2.725308     -1.412069
  C      -2.336184     -3.894337     -0.822225
  C      -3.078944     -3.826668      0.361628
  C      -3.328118     -2.584127      0.950038
  C      -2.833717     -1.413648      0.365066
  C      -2.153821      1.383820     -0.712344
  C      -1.495133      2.089410      0.306073
  C      -2.141737      3.129890      0.981273
  C      -3.454849      3.476134      0.652327
  C      -4.119110      2.781632     -0.364811
  C      -3.469160      1.752110     -1.047392
  H       5.812223     -0.345633      1.715821
  H       4.586322     -1.606092      1.435356
  H       4.183832     -0.172001      2.414159
  H       5.466989      0.579126     -1.445155
  H       5.057351      2.026756     -0.489022
  H       6.303096      0.897345      0.094459
  H       2.328881     -1.159527      1.488119
  H       0.024249     -1.254524      0.702728
  H       1.036617      1.248086     -2.654943
  H       3.347896      1.381754     -1.879990
  H      -1.281396     -2.782695     -2.343351
  H      -2.140138     -4.861827     -1.292129
  H      -3.465188     -4.740257      0.820934
  H      -3.908460     -2.522735      1.874695
  H      -3.027983     -0.449357      0.838477
  H      -0.471525      1.820864      0.574317
  H      -1.615220      3.670735      1.772405
  H      -3.958982      4.288183      1.182658
  H      -5.144633      3.049612     -0.632731
  H      -3.988975      1.220567     -1.850330
42
Coordinates from ORCA-job data/geom_opt/3333592/3333592 E -1169.090669300840
  C       4.744419     -0.513444      1.525028
  N       4.353936      0.189532      0.322663
  C       5.331206      0.961549     -0.412968
  C       3.048411      0.126424     -0.120561
  C       2.066284     -0.619100      0.579315
  C       0.750271     -0.674549      0.129338
  C       0.340616     -0.002731     -1.033688
  C       1.316258      0.723136     -1.736730
  C       2.634502      0.799900     -1.297249
  P      -1.380970      0.008333     -1.681110
  C      -2.087590     -1.471108     -0.821737
  C      -1.853332     -2.725929     -1.411543
  C      -2.336927     -3.894807     -0.821517
  C      -3.079956     -3.826741      0.362136
  C      -3.329216     -2.584091      0.950225
  C      -2.834634     -1.413735      0.365112
  C      -2.153023      1.383451     -0.712249
  C      -1.493950      2.088173      0.306500
  C      -2.139965      3.129041      0.981683
  C      -3.452669      3.476391      0.652294
  C      -4.117261      2.782721     -0.365151
  C      -3.467944      1.752752     -1.047763
  H       5.812910     -0.347893      1.713503
  H       4.581422     -1.604275      1.441939
  H       4.186203     -0.163030      2.413455
  H       5.463958      0.591326     -1.446870
  H       5.054793      2.030655     -0.477877
  H       6.302931      0.897070      0.093205
  H       2.329568     -1.162675      1.485830
  H       0.024654     -1.257034      0.701473
  H       1.035693      1.247815     -2.655135
  H       3.347450      1.380678     -1.880957
  H      -1.281669     -2.783499     -2.342650
  H      -2.140803     -4.862393     -1.291203
  H      -3.466375     -4.740198      0.821588
  H      -3.909764     -2.522457      1.874745
  H      -3.028903     -0.449266      0.838162
  H      -0.470673      1.818572      0.574922
  H      -1.613290      3.669299      1.773119
  H      -3.956267      4.288798      1.182620
  H      -5.142473      3.051614     -0.633371
  H      -3.987832      1.221725     -1.850983
42
Coordinates from ORCA-job data/geom_opt/3333592/3333592 E -1169.090669402123
  C       4.744468     -0.513033      1.525283
  N       4.354125      0.189074      0.322380
  C       5.331357      0.961342     -0.413027
  C       3.048509      0.126166     -0.120732
  C       2.066219     -0.618989      0.579423
  C       0.750167     -0.674310      0.129612
  C       0.340619     -0.002700     -1.033602
  C       1.316299      0.722774     -1.736977
  C       2.634572      0.799388     -1.297585
  P      -1.380917      0.008455     -1.680904
  C      -2.087644     -1.471000     -0.821702
  C      -1.853517     -2.725691     -1.411831
  C      -2.337150     -3.894648     -0.822004
  C      -3.080106     -3.826730      0.361730
  C      -3.329266     -2.584185      0.950105
  C      -2.834599     -1.413751      0.365175
  C      -2.152946      1.383468     -0.712062
  C      -1.493797      2.088372      0.306496
  C      -2.139865      3.129235      0.981669
  C      -3.452694      3.476285      0.652426
  C      -4.117382      2.782375     -0.364814
  C      -3.467992      1.752459     -1.047433
  H       5.812943     -0.347301      1.713817
  H       4.581618     -1.603930      1.442816
  H       4.186275     -0.161913      2.413454
  H       5.464483      0.591031     -1.446857
  H       5.054718      2.030389     -0.477937
  H       6.303035      0.897066      0.093300
  H       2.329501     -1.162372      1.486065
  H       0.024425     -1.256429      0.701941
  H       1.035709      1.247192     -2.655511
  H       3.347629      1.379853     -1.881483
  H      -1.281964     -2.783095     -2.343007
  H      -2.141166     -4.862186     -1.291862
  H      -3.466587     -4.740255      0.821036
  H      -3.909777     -2.522736      1.874674
  H      -3.028736     -0.449323      0.838372
  H      -0.470436      1.818882      0.574733
  H      -1.613212      3.669732      1.772973
  H      -3.956324      4.288705      1.182736
  H      -5.142700      3.051092     -0.632827
  H      -3.987893      1.221242     -1.850513
