34
Coordinates from ORCA-job data/geom_opt/11776/11776 E -1035.290921349625
  C          -2.71386599283282     -3.20475808345900     -0.65803872224618
  C          -1.96248820496273     -3.52036673400000      0.47892655754212
  C          -1.18265339309078     -2.54002105920951      1.09535094678362
  C          -1.12509352719848     -1.23511494553289      0.57511170221421
  C          -1.88424860477413     -0.92789020030849     -0.56482411320432
  C          -2.67520941943172     -1.90675988370498     -1.17449974774760
  P          -0.04374037494359     -0.02325908983666      1.45884492773795
  C           1.59448158456116     -0.35683085577604      0.66871670483334
  C           2.72266203114370      0.23963986082798      1.25865829087793
  C           3.99483586598774      0.05477526187240      0.71397525465779
  C           4.16082142563104     -0.74694847092281     -0.42025179671784
  C           3.04776517432889     -1.35649598200509     -1.00565411910465
  C           1.77186164363675     -1.16163820027899     -0.46755366812096
  C          -0.52550157034660      1.56043517974818      0.63492533325402
  C          -1.63659279333675      2.24325974994593      1.16029665001907
  C          -2.07711149845929      3.43752760625705      0.58674715652493
  C          -1.39966078615351      3.97841383040527     -0.51111678386465
  C          -0.28510045684442      3.31520853577684     -1.03178522784378
  C           0.14875258439832      2.11252127174601     -0.46547015105237
  H          -3.33162246952452     -3.96863615203564     -1.13713754642308
  H          -1.99129372565915     -4.53187479826216      0.89252311089149
  H          -0.60685191369195     -2.78818987677351      1.99197608251504
  H          -1.85451609942242      0.08067196909798     -0.98151211732243
  H          -3.26186442517417     -1.65264821653493     -2.06137667779945
  H           2.59882847325618      0.85771746980067      2.15288133737605
  H           4.86092472873098      0.53069505434495      1.18131836793301
  H           5.15690905906685     -0.89953448276014     -0.84356779368057
  H           3.17084993386977     -1.98641928523674     -1.89072561196228
  H           0.90827263317831     -1.63624997652022     -0.93738359996701
  H          -2.16162037393117      1.83021337828370      2.02672500661466
  H          -2.94653123009223      3.95282240502812      1.00340609251610
  H          -1.73771566899555      4.91758957216126     -0.95646999434952
  H           0.25065625835996      3.73368963298798     -1.88800670532506
  H           1.01566113271630      1.59845251487349     -0.88500714555959
