! RIJCOSX M062X def2-TZVP D3ZERO NormalSCF
%pal
nprocs 6
end

* xyz 0 1
  C           2.77905160974405     -0.07549609468400     -1.99704493266315
  C           2.51531523305497     -1.03637639685326     -0.86469527152931
  C           3.53596390229807     -1.88998994560393     -0.39997076557266
  C           3.32327311799929     -2.77582282545714      0.66790321641707
  C           2.07110908611111     -2.81587218816083      1.30055678226645
  C           1.04246416039604     -1.96998695003168      0.85866244560202
  C           1.24622444675109     -1.08241742538667     -0.21882626209330
  P          -0.10998266378496     -0.01477265376349     -0.88274717627315
  C           0.29168476473252      1.62919652574911     -0.13635854157321
  C           1.36331217805984      1.80203598742432      0.76478864541502
  C           1.68518352852385      3.07182887273245      1.26761367735586
  C           0.92827028824735      4.18664359318989      0.87511658382061
  C          -0.14393105778179      4.02156951767740     -0.01554802255773
  C          -0.48128812664075      2.75660137968173     -0.53768498235442
  C          -1.65752475580070      2.60453374029221     -1.46949291150998
  C          -1.55927100955392     -0.55463821350080      0.13153009024449
  C          -2.03024776568675      0.20032165059646      1.22637395172785
  C          -3.17105843439623     -0.19773275963855      1.93964942704862
  C          -3.85160091654039     -1.36665345517796      1.56505266939108
  C          -3.38497530876332     -2.12692116974765      0.48138118526169
  C          -2.24519358970798     -1.74242286916440     -0.25333622717427
  C          -1.75343538336047     -2.59219357558533     -1.39866234778405
  H           2.84715547475286      0.96969469748488     -1.62563606482238
  H           1.94876492935007     -0.08832125066477     -2.73452108837881
  H           3.72530789777778     -0.31296517286168     -2.52065554511380
  H           4.52002488922727     -1.85819140034560     -0.89490153242475
  H           4.13798304129022     -3.43507109720908      1.00496030355113
  H           1.89312408378334     -3.50246019786047      2.14250294657807
  H           0.06246255172715     -1.99199270924351      1.35891677218332
  H           1.94841873279231      0.92429710638337      1.07849399990049
  H           2.52510116713077      3.18702611960599      1.96990340175552
  H           1.17142732344720      5.18821213147958      1.26204866573046
  H          -0.73886993312642      4.89719339851385     -0.32158731950523
  H          -1.40418156011131      1.95350494062011     -2.33281951156229
  H          -2.00340431749309      3.58480418841666     -1.85070990113076
  H          -2.51341014761954      2.11716711590691     -0.95459723726904
  H          -1.48961921719741      1.11152696911506      1.52390873693349
  H          -3.52430972237072      0.40473491570059      2.79064935063205
  H          -4.74864069636649     -1.68907927947868      2.11580732903851
  H          -3.91944188637201     -3.04499245438843      0.18836877473156
  H          -1.48833563185825     -1.96635531204489     -2.27689596756424
  H          -0.82956307481942     -3.14399019450824     -1.12082347683068
  H          -2.51333520784523     -3.33617925920951     -1.70667386989816
*