! RI BP86 def2-SVP D3BJ TIGHTSCF Opt
%pal
nprocs 6
end

* xyz 0 1
C      3.906602   -1.546212   -0.975495
C      2.920960   -2.478729   -0.668239
C      1.780685   -2.086757    0.040607
C      1.591211   -0.753031    0.439062
C      2.614025    0.164509    0.141276
C      3.755561   -0.224887   -0.567138
P      0.132872   -0.257722    1.426414
C     -0.199133    1.444748    0.851524
C     -0.388091    1.773247   -0.499513
C     -0.637395    3.091716   -0.888816
C     -0.701508    4.101729    0.067633
C     -0.515944    3.794602    1.413249
C     -0.266557    2.475658    1.802637
C     -1.273721   -1.129239    0.669021
C     -2.408045   -1.396367    1.434433
C     -3.485791   -2.053329    0.844201
C     -3.407022   -2.424418   -0.491147
C     -2.248316   -2.120939   -1.182995
N     -1.189157   -1.486591   -0.635215
H      4.792303   -1.849647   -1.526494
H      3.034359   -3.514192   -0.977354
H      1.032677   -2.842705    0.270297
H      2.539590    1.202235    0.459483
H      4.526063    0.507017   -0.794068
H     -0.338017    1.001549   -1.266293
H     -0.780299    3.325308   -1.940512
H     -0.895387    5.126929   -0.236078
H     -0.564425    4.580898    2.161922
H     -0.122782    2.262275    2.859840
H     -2.463550   -1.097164    2.476379
H     -4.378921   -2.269017    1.423415
H     -4.227983   -2.934735   -0.981619
H     -2.134863   -2.386738   -2.230009
*