25
Coordinates from ORCA-job data/geom_opt/521585/521585 E -1028.630503356633
  C      -2.022785     -3.131530      0.450272
  C      -2.577902     -2.139038      1.220651
  O      -2.151621     -0.920613      0.803259
  C      -1.292239     -1.123078     -0.238889
  C      -1.200504     -2.476163     -0.498883
  P      -0.461086      0.207899     -1.182809
  C       1.304306     -0.271761     -1.101444
  C       2.378981      0.555500     -1.361374
  C       3.546824     -0.231993     -1.211236
  C       3.113879     -1.493994     -0.884748
  O       1.758896     -1.530477     -0.828340
  C      -0.551128      1.637896     -0.042501
  C      -1.704095      2.157662      0.511900
  C      -1.314272      3.268942      1.299072
  C       0.049028      3.369255      1.164798
  O       0.517618      2.394774      0.345468
  H      -2.188672     -4.193883      0.557983
  H      -3.260715     -2.133182      2.058589
  H      -0.603195     -2.939074     -1.272796
  H       2.330000      1.605274     -1.617467
  H       4.574207      0.082441     -1.326692
  H       3.615480     -2.427945     -0.673706
  H      -2.706924      1.775733      0.375987
  H      -1.948595      3.914433      1.889572
  H       0.794513      4.042924      1.563334
25
Coordinates from ORCA-job data/geom_opt/521585/521585 E -1028.634281303884
  C      -2.023296     -3.126037      0.445816
  C      -2.523413     -2.126971      1.236879
  O      -2.054892     -0.921963      0.821348
  C      -1.252290     -1.135508     -0.257849
  C      -1.205056     -2.483555     -0.531875
  P      -0.474031      0.213581     -1.215837
  C       1.296078     -0.227758     -1.091809
  C       2.375015      0.573631     -1.388814
  C       3.540367     -0.232304     -1.213925
  C       3.092065     -1.469929     -0.837977
  O       1.736585     -1.471503     -0.754896
  C      -0.584166      1.606434     -0.036327
  C      -1.728779      2.161893      0.488894
  C      -1.313025      3.266631      1.291944
  C       0.051124      3.317406      1.189204
  O       0.498433      2.311712      0.393767
  H      -2.222588     -4.190805      0.549312
  H      -3.188133     -2.106122      2.096738
  H      -0.644948     -2.955864     -1.335558
  H       2.335251      1.617689     -1.690606
  H       4.578662      0.062108     -1.353275
  H       3.582667     -2.409933     -0.598504
  H      -2.745688      1.814257      0.322298
  H      -1.941486      3.942471      1.868515
  H       0.815544      3.970441      1.602538
25
Coordinates from ORCA-job data/geom_opt/521585/521585 E -1028.635995784200
  C      -2.021355     -3.122965      0.443095
  C      -2.438723     -2.116358      1.265665
  O      -1.959729     -0.923753      0.823872
  C      -1.216241     -1.155972     -0.289360
  C      -1.233432     -2.497095     -0.581495
  P      -0.487534      0.219472     -1.250303
  C       1.291664     -0.176128     -1.094732
  C       2.377936      0.586735     -1.444428
  C       3.535922     -0.230660     -1.213684
  C       3.066649     -1.430764     -0.762479
  O       1.709551     -1.405466     -0.694553
  C      -0.629670      1.581139     -0.037104
  C      -1.761070      2.188388      0.448099
  C      -1.313065      3.263285      1.288487
  C       0.050993      3.240936      1.234400
  O       0.469588      2.229341      0.429169
  H      -2.249498     -4.183782      0.551334
  H      -3.056246     -2.080026      2.161297
  H      -0.730147     -2.978705     -1.418773
  H       2.352049      1.613369     -1.807245
  H       4.581309      0.039364     -1.366489
  H       3.541741     -2.364000     -0.465545
  H      -2.788457      1.891799      0.241190
  H      -1.926835      3.963057      1.856556
  H       0.834601      3.848793      1.683028
25
Coordinates from ORCA-job data/geom_opt/521585/521585 E -1028.636900674345
  C      -2.030428     -3.126909      0.431331
  C      -2.360837     -2.123811      1.296205
  O      -1.859635     -0.940233      0.854659
  C      -1.201829     -1.174298     -0.311527
  C      -1.281973     -2.506791     -0.627572
  P      -0.492049      0.221599     -1.262596
  C       1.295937     -0.145622     -1.104057
  C       2.385580      0.581850     -1.510640
  C       3.538442     -0.228887     -1.228437
  C       3.060385     -1.388826     -0.690529
  O       1.704492     -1.343843     -0.609244
  C      -0.661090      1.575107     -0.039406
  C      -1.782515      2.230744      0.401492
  C      -1.320982      3.271675      1.278700
  C       0.040894      3.179075      1.288839
  O       0.446741      2.152440      0.496137
  H      -2.287872     -4.180416      0.532015
  H      -2.921122     -2.086341      2.227409
  H      -0.844394     -2.986804     -1.500722
  H       2.365890      1.580791     -1.941913
  H       4.583747      0.021208     -1.404735
  H       3.529377     -2.301361     -0.330264
  H      -2.811390      1.987270      0.143759
  H      -1.925613      3.992711      1.827168
  H       0.830245      3.739673      1.783927
25
Coordinates from ORCA-job data/geom_opt/521585/521585 E -1028.638275384993
  C      -2.042785     -3.131481      0.414194
  C      -2.229890     -2.149143      1.344648
  O      -1.712601     -0.974477      0.900267
  C      -1.192311     -1.192922     -0.339191
  C      -1.375339     -2.505481     -0.692686
  P      -0.496650      0.223941     -1.275351
  C       1.300289     -0.115396     -1.120898
  C       2.390959      0.550542     -1.619150
  C       3.540824     -0.226579     -1.249686
  C       3.059822     -1.311361     -0.573244
  O       1.705849     -1.249091     -0.484665
  C      -0.694907      1.573267     -0.047427
  C      -1.795054      2.306259      0.318202
  C      -1.332216      3.283053      1.263815
  C       0.013128      3.080580      1.385387
  O       0.406416      2.043921      0.600754
  H      -2.343577     -4.173063      0.500262
  H      -2.691109     -2.124545      2.327897
  H      -1.054367     -2.969693     -1.622087
  H       2.373551      1.490484     -2.165480
  H       4.583854     -0.004839     -1.463457
  H       3.527793     -2.176399     -0.111926
  H      -2.812950      2.152399     -0.031796
  H      -1.924832      4.035014      1.779702
  H       0.796103      3.565011      1.961918
25
Coordinates from ORCA-job data/geom_opt/521585/521585 E -1028.640716022167
  C      -2.055788     -3.124834      0.395174
  C      -2.012509     -2.195497      1.395653
  O      -1.474697     -1.035273      0.940578
  C      -1.182569     -1.205519     -0.380663
  C      -1.521349     -2.475971     -0.769119
  P      -0.509144      0.229701     -1.307427
  C       1.293838     -0.080439     -1.147403
  C       2.383425      0.475988     -1.766191
  C       3.532307     -0.229233     -1.271140
  C       3.051172     -1.166467     -0.401338
  O       1.699816     -1.077077     -0.309666
  C      -0.733409      1.567285     -0.069346
  C      -1.779233      2.414260      0.192674
  C      -1.335982      3.290426      1.240577
  C      -0.052884      2.916809      1.524371
  O       0.317291      1.867787      0.746508
  H      -2.423324     -4.144657      0.469947
  H      -2.311188     -2.204887      2.439381
  H      -1.388288     -2.898930     -1.761363
  H       2.365881      1.299683     -2.474937
  H       4.572870     -0.058348     -1.533333
  H       3.519898     -1.935159      0.205345
  H      -2.751429      2.400330     -0.292885
  H      -1.900332      4.089955      1.712780
  H       0.695625      3.280067      2.221824
25
Coordinates from ORCA-job data/geom_opt/521585/521585 E -1028.643116462537
  C      -2.066549     -3.109632      0.385005
  C      -1.778151     -2.259446      1.415079
  O      -1.226177     -1.113733      0.943804
  C      -1.177636     -1.208115     -0.417570
  C      -1.680765     -2.420110     -0.814259
  P      -0.522956      0.235706     -1.342926
  C       1.281531     -0.056032     -1.173100
  C       2.367204      0.362825     -1.897888
  C       3.518666     -0.237791     -1.284705
  C       3.042478     -0.982476     -0.242763
  O       1.693809     -0.868082     -0.155711
  C      -0.760203      1.560959     -0.095056
  C      -1.720389      2.525351      0.070831
  C      -1.328963      3.291881      1.220493
  C      -0.157144      2.740926      1.656704
  O       0.188400      1.684661      0.879235
  H      -2.502143     -4.101611      0.461439
  H      -1.899880     -2.322359      2.491763
  H      -1.751790     -2.779216     -1.837171
  H       2.345325      1.030291     -2.754851
  H       4.556189     -0.128057     -1.586567
  H       3.515705     -1.619819      0.497407
  H      -2.605098      2.659764     -0.545302
  H      -1.852217      4.138727      1.654856
  H       0.520754      2.975391      2.471251
25
Coordinates from ORCA-job data/geom_opt/521585/521585 E -1028.645485407710
  C      -2.089787     -3.096944      0.353780
  C      -1.647381     -2.356649      1.415969
  O      -1.097138     -1.198638      0.986249
  C      -1.175017     -1.175253     -0.379732
  C      -1.787823     -2.326859     -0.814103
  P      -0.517899      0.232288     -1.329387
  C       1.264275     -0.090471     -1.139675
  C       2.316316      0.243131     -1.959643
  C       3.503143     -0.240524     -1.322818
  C       3.089455     -0.841325     -0.165351
  O       1.745023     -0.758214     -0.046190
  C      -0.712762      1.545792     -0.083320
  C      -1.619750      2.577162     -0.018277
  C      -1.332313      3.301986      1.181817
  C      -0.266340      2.666237      1.757599
  O       0.114543      1.609602      1.004619
  H      -2.579002     -4.068233      0.397380
  H      -1.663892     -2.508407      2.492797
  H      -1.997879     -2.587683     -1.848917
  H       2.245324      0.771359     -2.907884
  H       4.527047     -0.159126     -1.682889
  H       3.610091     -1.360795      0.635849
  H      -2.398413      2.790786     -0.747181
  H      -1.845149      4.184103      1.560665
  H       0.315327      2.846679      2.658646
25
Coordinates from ORCA-job data/geom_opt/521585/521585 E -1028.646206912672
  C      -2.128765     -3.111185      0.338643
  C      -1.589380     -2.443194      1.404019
  O      -1.009821     -1.292172      0.997025
  C      -1.170662     -1.195854     -0.358137
  C      -1.865127     -2.294181     -0.806846
  P      -0.500020      0.224409     -1.281592
  C       1.288118     -0.088643     -1.122154
  C       2.312051      0.162615     -2.004377
  C       3.521165     -0.255750     -1.362458
  C       3.143950     -0.745613     -0.141842
  O       1.804990     -0.648770      0.013975
  C      -0.715282      1.552481     -0.052588
  C      -1.563799      2.634144     -0.058022
  C      -1.336400      3.342398      1.165018
  C      -0.355311      2.648670      1.819629
  O       0.024474      1.571009      1.097961
  H      -2.658638     -4.061368      0.366908
  H      -1.547146     -2.649256      2.470991
  H      -2.152953     -2.489983     -1.837942
  H       2.207632      0.595643     -2.997316
  H       4.532976     -0.208845     -1.760510
  H       3.691779     -1.186612      0.687664
  H      -2.266234      2.890851     -0.848627
  H      -1.828470      4.251466      1.505433
  H       0.160871      2.797739      2.765144
25
Coordinates from ORCA-job data/geom_opt/521585/521585 E -1028.646478174399
  C      -2.176210     -3.118785      0.319175
  C      -1.551630     -2.536058      1.388508
  O      -0.938545     -1.391780      1.015338
  C      -1.158277     -1.214452     -0.323215
  C      -1.918526     -2.258188     -0.795274
  P      -0.476624      0.214366     -1.221813
  C       1.313258     -0.089704     -1.088233
  C       2.301710      0.103309     -2.024116
  C       3.535748     -0.276100     -1.405843
  C       3.207505     -0.671760     -0.137399
  O       1.876123     -0.565854      0.064106
  C      -0.710580      1.553571     -0.011133
  C      -1.517196      2.664447     -0.085534
  C      -1.340187      3.386118      1.137921
  C      -0.437886      2.660713      1.867935
  O      -0.052403      1.559120      1.188087
  H      -2.750518     -4.042957      0.325528
  H      -1.467837     -2.803516      2.439314
  H      -2.260288     -2.384633     -1.820863
  H       2.155460      0.465185     -3.040106
  H       4.530910     -0.260719     -1.845587
  H       3.789978     -1.049061      0.699931
  H      -2.153843      2.934687     -0.925922
  H      -1.815394      4.319480      1.432847
  H       0.015252      2.802571      2.846346
25
Coordinates from ORCA-job data/geom_opt/521585/521585 E -1028.646580050623
  C      -2.194755     -3.116130      0.314129
  C      -1.503200     -2.588773      1.371035
  O      -0.868157     -1.453957      1.006326
  C      -1.146554     -1.223236     -0.313464
  C      -1.967622     -2.221777     -0.780889
  P      -0.468977      0.211149     -1.202393
  C       1.321033     -0.082409     -1.074598
  C       2.289714      0.044265     -2.041732
  C       3.537259     -0.288830     -1.422627
  C       3.233328     -0.603922     -0.125783
  O       1.906747     -0.481535      0.095934
  C      -0.714443      1.548481      0.005094
  C      -1.466670      2.693109     -0.112058
  C      -1.335029      3.402057      1.125086
  C      -0.503650      2.640028      1.900687
  O      -0.126262      1.524002      1.240424
  H      -2.795681     -4.022947      0.317546
  H      -1.376846     -2.897328      2.406157
  H      -2.362860     -2.299186     -1.791748
  H       2.121489      0.337957     -3.075879
  H       4.524056     -0.299609     -1.880410
  H       3.833671     -0.923554      0.722790
  H      -2.041769      2.989660     -0.986901
  H      -1.790412      4.351499      1.398285
  H      -0.104412      2.760989      2.904989
25
Coordinates from ORCA-job data/geom_opt/521585/521585 E -1028.646627702000
  C      -2.207095     -3.107684      0.318398
  C      -1.456346     -2.621133      1.353960
  O      -0.809981     -1.493517      0.985752
  C      -1.138663     -1.228532     -0.316214
  C      -2.000536     -2.198546     -0.769379
  P      -0.469172      0.211125     -1.201557
  C       1.321760     -0.072492     -1.072933
  C       2.281871      0.001695     -2.053671
  C       3.534238     -0.304214     -1.428782
  C       3.241869     -0.544286     -0.113644
  O       1.917134     -0.408044      0.112916
  C      -0.722886      1.543504      0.008770
  C      -1.428019      2.715208     -0.129304
  C      -1.321443      3.410253      1.118871
  C      -0.556525      2.609846      1.923195
  O      -0.190739      1.486287      1.268531
  H      -2.829863     -3.999609      0.329549
  H      -1.292732     -2.956295      2.375518
  H      -2.435023     -2.247023     -1.765708
  H       2.104226      0.244095     -3.099358
  H       4.516922     -0.342364     -1.893946
  H       3.850336     -0.815960      0.745805
  H      -1.956309      3.036947     -1.024388
  H      -1.752816      4.373803      1.381535
  H      -0.200208      2.706939      2.946084
25
Coordinates from ORCA-job data/geom_opt/521585/521585 E -1028.646640721389
  C      -2.217225     -3.103336      0.319450
  C      -1.427772     -2.648471      1.340266
  O      -0.771465     -1.526442      0.971857
  C      -1.132610     -1.233377     -0.315413
  C      -2.025234     -2.179976     -0.758915
  P      -0.467394      0.210212     -1.197769
  C       1.324653     -0.066781     -1.068349
  C       2.277955     -0.026088     -2.057877
  C       3.534458     -0.312773     -1.432336
  C       3.251747     -0.508398     -0.107982
  O       1.928523     -0.363705      0.123530
  C      -0.727643      1.540356      0.013744
  C      -1.404574      2.726954     -0.139082
  C      -1.315836      3.416870      1.113266
  C      -0.589636      2.598759      1.935143
  O      -0.230709      1.468903      1.287116
  H      -2.855637     -3.984278      0.334152
  H      -1.239638     -3.005099      2.350348
  H      -2.487050     -2.204535     -1.743841
  H       2.092604      0.184310     -3.109221
  H       4.513954     -0.367003     -1.902966
  H       3.866794     -0.750319      0.755754
  H      -1.904212      3.060190     -1.046422
  H      -1.733989      4.388631      1.367582
  H      -0.260065      2.685399      2.967966
25
Coordinates from ORCA-job data/geom_opt/521585/521585 E -1028.646644486320
  C      -2.221876     -3.100409      0.320970
  C      -1.411399     -2.661565      1.332224
  O      -0.750297     -1.542907      0.961757
  C      -1.129714     -1.235915     -0.316813
  C      -2.038405     -2.170681     -0.753108
  P      -0.467600      0.210236     -1.198337
  C       1.325463     -0.062987     -1.067595
  C       2.275858     -0.043322     -2.060730
  C       3.533907     -0.317837     -1.433391
  C       3.255428     -0.485769     -0.104385
  O       1.932981     -0.334850      0.128238
  C      -0.730949      1.538659      0.015178
  C      -1.390234      2.734473     -0.143889
  C      -1.311648      3.419153      1.111752
  C      -0.608383      2.589436      1.941860
  O      -0.253961      1.457137      1.295382
  H      -2.868599     -3.975240      0.339269
  H      -1.209326     -3.028521      2.335887
  H      -2.515358     -2.183547     -1.731063
  H       2.087302      0.146582     -3.115446
  H       4.511889     -0.382599     -1.905911
  H       3.873035     -0.709208      0.762486
  H      -1.872842      3.076180     -1.057333
  H      -1.721195      4.395419      1.362937
  H      -0.294078      2.668085      2.980058
25
Coordinates from ORCA-job data/geom_opt/521585/521585 E -1028.646645321427
  C      -2.223518     -3.098940      0.321878
  C      -1.402762     -2.667602      1.328133
  O      -0.739861     -1.550424      0.956362
  C      -1.128577     -1.236760     -0.317615
  C      -2.045252     -2.165699     -0.749835
  P      -0.467694      0.210452     -1.199013
  C       1.325892     -0.061334     -1.067674
  C       2.275006     -0.052236     -2.062268
  C       3.533678     -0.320567     -1.433844
  C       3.257045     -0.474225     -0.102662
  O       1.934825     -0.321185      0.129928
  C      -0.732246      1.538257      0.015444
  C      -1.382985      2.738459     -0.146222
  C      -1.309385      3.420246      1.111130
  C      -0.618486      2.584110      1.945274
  O      -0.266821      1.450643      1.299309
  H      -2.873911     -3.970993      0.342171
  H      -1.193316     -3.039428      2.328474
  H      -2.530332     -2.172753     -1.723851
  H       2.085170      0.126932     -3.118636
  H       4.510977     -0.390630     -1.907003
  H       3.875555     -0.688175      0.765942
  H      -1.856500      3.084998     -1.062606
  H      -1.714221      4.398814      1.360960
  H      -0.312282      2.658044      2.986222
25
Coordinates from ORCA-job data/geom_opt/521585/521585 E -1028.646645599597
  C      -2.224330     -3.098411      0.322184
  C      -1.399583     -2.670031      1.326510
  O      -0.736282     -1.553216      0.954407
  C      -1.128564     -1.236903     -0.317722
  C      -2.047636     -2.164052     -0.748754
  P      -0.467788      0.210500     -1.199108
  C       1.325916     -0.061143     -1.067700
  C       2.274539     -0.055750     -2.062808
  C       3.533509     -0.321495     -1.433977
  C       3.257552     -0.469912     -0.102000
  O       1.935479     -0.315769      0.130595
  C      -0.732434      1.538301      0.015502
  C      -1.379969      2.740120     -0.147139
  C      -1.308924      3.420497      1.111074
  C      -0.621970      2.582287      1.946482
  O      -0.270541      1.448826      1.300401
  H      -2.876063     -3.969435      0.343184
  H      -1.187280     -3.043656      2.325574
  H      -2.535681     -2.169046     -1.721292
  H       2.084280      0.119095     -3.119815
  H       4.510574     -0.393324     -1.907338
  H       3.876322     -0.680139      0.767325
  H      -1.849947      3.088632     -1.064583
  H      -1.712578      4.399619      1.360612
  H      -0.318601      2.654407      2.988384
