25
Coordinates from ORCA-job data/geom_opt/521585/521585 E -1028.646645599597
  C          -2.22433036072714     -3.09841066484049      0.32218418612227
  C          -1.39958277036618     -2.67003106235161      1.32651013058166
  O          -0.73628197990936     -1.55321603331721      0.95440720726317
  C          -1.12856362138416     -1.23690275838099     -0.31772175580446
  C          -2.04763618038614     -2.16405233725331     -0.74875373699236
  P          -0.46778763216964      0.21050049547640     -1.19910811491705
  C           1.32591590406289     -0.06114282731641     -1.06769978720290
  C           2.27453892017344     -0.05574999412971     -2.06280789312781
  C           3.53350930931457     -0.32149537381520     -1.43397722546392
  C           3.25755181693988     -0.46991174661657     -0.10199977666710
  O           1.93547854232032     -0.31576935319737      0.13059533598499
  C          -0.73243438365044      1.53830138493970      0.01550208488523
  C          -1.37996935163972      2.74012001399908     -0.14713880460377
  C          -1.30892379884316      3.42049749205527      1.11107359021886
  C          -0.62196997100393      2.58228700491939      1.94648234148436
  O          -0.27054090469775      1.44882571097808      1.30040147847374
  H          -2.87606335390577     -3.96943505896899      0.34318361265724
  H          -1.18727990744515     -3.04365643900545      2.32557398846039
  H          -2.53568139982220     -2.16904555765282     -1.72129158216747
  H           2.08428036852368      0.11909476551550     -3.11981536190568
  H           4.51057369774513     -0.39332448274581     -1.90733821989305
  H           3.87632198551533     -0.68013932189624      0.76732525400322
  H          -1.84994728652466      3.08863187579071     -1.06458314946847
  H          -1.71257770372340      4.39961946984398      1.36061201627530
  H          -0.31860093839645      2.65440679797004      2.98838418180360
