! RIJONX B3LYP def2-SVP D3BJ TIGHTSCF Opt
%pal
nprocs 6
end

* xyz 0 1
C     -2.022785   -3.131530    0.450272
C     -2.577902   -2.139038    1.220651
O     -2.151621   -0.920613    0.803259
C     -1.292239   -1.123078   -0.238889
C     -1.200504   -2.476163   -0.498883
P     -0.461086    0.207899   -1.182809
C      1.304306   -0.271761   -1.101444
C      2.378981    0.555500   -1.361374
C      3.546824   -0.231993   -1.211236
C      3.113879   -1.493994   -0.884748
O      1.758896   -1.530477   -0.828340
C     -0.551128    1.637896   -0.042501
C     -1.704095    2.157662    0.511900
C     -1.314272    3.268942    1.299072
C      0.049028    3.369255    1.164798
O      0.517618    2.394774    0.345468
H     -2.188672   -4.193883    0.557983
H     -3.260715   -2.133182    2.058589
H     -0.603195   -2.939074   -1.272796
H      2.330000    1.605274   -1.617467
H      4.574207    0.082441   -1.326692
H      3.615480   -2.427945   -0.673706
H     -2.706924    1.775733    0.375987
H     -1.948595    3.914433    1.889572
H      0.794513    4.042924    1.563334
*