! RIJCOSX M062X def2-TZVP D3ZERO NormalSCF
%pal
nprocs 6
end

* xyz 0 1
  C           2.78849434195004      0.06125349288119      1.02309971386045
  C           1.88068397026187      0.19342351998354      2.08682829530240
  C           0.49846708424966      0.19998457578109      1.83517748806602
  C           0.00113517580230      0.07309962056268      0.51961835251110
  C           0.92806793748017     -0.06080128732498     -0.54174697744419
  C           2.31010515530372     -0.06570959672487     -0.29274149793919
  P          -1.84849375009681      0.08624677639377      0.27303262002537
  C          -1.87113463421533      1.36350714113686     -1.14238182158268
  O          -1.24796032570117      2.56978168288304     -0.76555445142450
  C          -1.93691892426925     -1.51836590616666     -0.75442251094331
  O          -1.37272296235174     -2.60982904113329     -0.06498485604590
  H           3.87183534206172      0.05684999253703      1.21827453028989
  H           2.25075204815254      0.29265872403297      3.11887986903374
  H          -0.21691105444346      0.30477082418138      2.66631359521041
  H           0.56932696000521     -0.16347650303749     -1.57905942899760
  H           3.01789749708464     -0.16982917842229     -1.12972732502175
  H          -2.93147220689186      1.59616421939405     -1.37432991370100
  H          -1.42569975152313      0.91077402710390     -2.06693620130634
  H          -0.33688575805079      2.34344993640098     -0.48925853456893
  H          -3.00769005174993     -1.75370089504129     -0.92881562319706
  H          -1.47061915056461     -1.34724010997223     -1.76003703705071
  H          -0.45025694249380     -2.36301401544937      0.14877371492376
*