33
Coordinates from ORCA-job data/geom_opt_P_BP86/621893/621893 E -1051.833366466719
  C           3.83665287309291     -1.59030718898198     -0.95662977432021
  C           2.87373230816347     -2.52431752946255     -0.53593996752609
  C           1.74460728956754     -2.10143556500003      0.18013410466262
  C           1.55386440623236     -0.73409505298150      0.47754681530826
  C           2.52796646406554      0.19617120747878      0.05849767414131
  C           3.66095092339938     -0.23045292808860     -0.65369288570597
  P           0.12891232934950     -0.21955677026527      1.53456966167203
  C          -0.18603393682460      1.49532444372591      0.90060377229407
  C          -0.36358149948310      1.77220210962212     -0.47322024438249
  C          -0.59664499125536      3.08748817192750     -0.89976167886985
  C          -0.65119374730055      4.13721944486483      0.03625931400469
  C          -0.47437457551865      3.86822753800842      1.40275755612148
  C          -0.24418952617751      2.54977837534570      1.83388644385273
  C          -1.26700768774408     -1.11993495324531      0.66551576758722
  C          -2.33860540492625     -1.58760322211418      1.45429964107558
  C          -3.41087526569995     -2.23831405059207      0.82449244344832
  C          -3.36997607061183     -2.40821705473412     -0.56718134082970
  C          -2.25427638047328     -1.91245595864523     -1.26630157455511
  N          -1.22936629333843     -1.28355802507792     -0.67178466781476
  H           4.72177952062839     -1.92308366154806     -1.52020165809166
  H           3.00173327600178     -3.59257798886645     -0.77053815849237
  H           0.99708964054475     -2.84309707772556      0.50248047525669
  H           2.39437600047287      1.26590090854005      0.28041497275697
  H           4.40905437326706      0.50919651643428     -0.97910411608094
  H          -0.32551781778712      0.94032234574755     -1.19371345000623
  H          -0.73657235924296      3.29833724150314     -1.97156775713365
  H          -0.83195835576585      5.16901822642009     -0.30310877283641
  H          -0.51521228572256      4.68704473835187      2.13772239899522
  H          -0.10453303653188      2.33211853109212      2.90487575254109
  H          -2.31829466019180     -1.44021497492652      2.54500570493710
  H          -4.26254457731128     -2.61344847953560      1.41315606485148
  H          -4.18330505306596     -2.91716160608547     -1.10602548445022
  H          -2.18665487981257     -2.02851671118594     -2.36303903241120
