! RI BP86 def2-SVP D3BJ TIGHTSCF Opt
%pal
nprocs 6
end

* xyz 0 1
C     -3.967506   -0.873980   -0.841056
C     -2.581088   -0.417841   -1.262363
C     -1.500278   -0.974997   -0.344706
P      0.169646   -0.520214   -0.824999
O      0.502803   -0.979645   -2.217315
C      0.320727    1.258425   -0.649321
C      0.004129    1.827112    0.727439
C      0.164795    3.338315    0.759803
C      1.229270   -1.281348    0.409515
C      2.714068   -1.012137    0.200784
C      3.566157   -1.719515    1.240629
H     -4.198232   -0.539640    0.175469
H     -4.047615   -1.965309   -0.870665
H     -4.724001   -0.459653   -1.514792
H     -2.542629    0.676623   -1.257753
H     -2.388093   -0.736063   -2.292889
H     -1.556004   -2.069945   -0.343085
H     -1.681198   -0.652620    0.686143
H     -0.336218    1.724426   -1.392696
H      1.343668    1.535884   -0.928513
H      0.664472    1.380221    1.477370
H     -1.021041    1.569393    1.011633
H     -0.509610    3.820052    0.044651
H      1.191263    3.629156    0.514632
H     -0.067807    3.722836    1.757783
H      1.049367   -2.362358    0.376820
H      0.923935   -0.945010    1.405987
H      3.009994   -1.341908   -0.801301
H      2.905156    0.065196    0.247571
H      3.423248   -2.803796    1.193664
H      4.626392   -1.509085    1.068887
H      3.312228   -1.382574    2.250743
*