16
Coordinates from ORCA-job data/geom_opt_P_BP86/76001/76001 E -686.414499253977
  C          -0.32213976906919      1.61937339941603     -0.29343353673422
  O          -1.57750000081862      2.24297765374591     -0.09173923306942
  P          -0.17196521350153     -0.01387873326109      0.63854409259403
  C           1.60033697392680     -0.46720496012151      0.17645112129780
  O           2.55599513701022      0.21183461643975      0.97068204782211
  C          -1.09762844287014     -1.13747186129735     -0.56142277477769
  O          -1.18720230514175     -2.47081262467012     -0.09285679180685
  H           0.55029091792445      2.24245301574835      0.02307859283855
  H          -0.21983201522512      1.44907976344655     -1.38747964612822
  H          -1.67460067343434      2.38500927692391      0.86974454775469
  H           1.66593912825972     -1.58125522771716      0.24018846073250
  H           1.80505799907042     -0.18958415028515     -0.88054962718940
  H           2.37254941962509     -0.02249281171215      1.90098359290948
  H          -0.56880297550806     -1.17489583635631     -1.53879345348366
  H          -2.08825452083198     -0.65300934765386     -0.74428265054575
  H          -1.64224465941596     -2.44012117264578      0.77088625778606
