58
Coordinates from ORCA-job data/geom_opt/77831/77831 E -1049.692187138794
  C           0.47019033600880      5.63266067479528      0.73867733615344
  C           0.95617429711340      4.97298984319364     -0.55328636695689
  C           0.88268070112757      3.44094669543271     -0.55288810520470
  C          -0.53594941273184      2.86967978818998     -0.45314563902011
  C          -0.59729384231061      1.33673825626230     -0.51779240043541
  C          -0.29012934389749      0.76799867064190     -1.90806442286122
  P          -0.09729102381806     -1.08864916295307     -2.14475832818847
  C           1.66585992950287     -1.37830937128261     -1.58140430443879
  C           2.17278222340592     -0.78976366512020     -0.26305970686621
  C           3.61510319649263     -1.19046029515059      0.05928894299204
  C           4.13032818371588     -0.57917038856543      1.36471581066008
  C           5.55642240254577     -0.99057060629253      1.75048146586767
  C           6.63750424025225     -0.51105317628595      0.77995161358609
  C          -1.05380021351301     -1.79147829194752     -0.70058421192120
  C          -2.56817203344095     -1.75047792966795     -0.92530192052154
  C          -3.36967892500469     -2.36163340825534      0.22572119022528
  C          -4.88199914786789     -2.33535958287015      0.00166688503193
  C          -5.68719518494490     -2.94595389525888      1.15053307328055
  C          -7.19698412974669     -2.91733677478402      0.91551785590960
  H          -0.59909741941417      5.44111030629516      0.92287631412776
  H           1.02888008408931      5.25439535986029      1.61203254775128
  H           0.60576157768926      6.72565568380467      0.70499003423222
  H           0.37173676748068      5.36123969505175     -1.40776718339592
  H           2.00108124262113      5.27630530083280     -0.74126630611105
  H           1.36509995475618      3.06687359398922     -1.47233419493467
  H           1.48709611717213      3.04677490018773      0.28620546986183
  H          -0.99528092547948      3.20001276425343      0.49394398215398
  H          -1.16061934834268      3.29825148147582     -1.25949223996401
  H           0.09480382321682      0.92371613617532      0.23240907628164
  H          -1.60318368526248      1.00657344295691     -0.21076968020774
  H          -1.08017771803450      1.08953239600001     -2.60857209086563
  H           0.64380424656289      1.19712813510681     -2.31073130471469
  H           1.78487000063659     -2.47737523183236     -1.57343618229648
  H           2.30169074372262     -1.02559093035010     -2.41340675643202
  H           2.11411651940616      0.31089819579542     -0.30136556032744
  H           1.51765456197624     -1.10150193008820      0.56908271836096
  H           4.26493745821926     -0.89112462938864     -0.78196960997851
  H           3.68649518296291     -2.29285121933693      0.11749133593056
  H           3.44244287822490     -0.86029005795162      2.18260649220203
  H           4.07655191040438      0.52383144378549      1.29354485895432
  H           5.60345457231811     -2.09155161852562      1.84028156784762
  H           5.77693619035696     -0.59699116118285      2.75825021896289
  H           7.64438956225825     -0.77936747159182      1.13821938422970
  H           6.51806040944121     -0.95332954001980     -0.22214115065823
  H           6.60706388939180      0.58585152919530      0.66260964004311
  H          -0.72334541269591     -2.84082173270699     -0.60112322557470
  H          -0.79480585525391     -1.29264940039568      0.24789523532195
  H          -2.89585093909691     -0.70573026808245     -1.07668799924507
  H          -2.81091841330992     -2.27595510453516     -1.86601796381209
  H          -3.04004701554753     -3.40541703285466      0.38397684983429
  H          -3.12823155824310     -1.82633882533396      1.16298652813179
  H          -5.12127242112687     -2.87016050809252     -0.93652344306556
  H          -5.20971295107129     -1.29096166455064     -0.15868746227236
  H          -5.35603904482572     -3.98838927227416      1.31055938745437
  H          -5.44692947618479     -2.40890253689635      2.08644664455575
  H          -7.46967371812058     -3.47753004741114      0.00510542207484
  H          -7.56088785558727     -1.88400172036240      0.78569743465472
  H          -7.74940418819965     -3.36211684108368      1.75881044359642
