47
Coordinates from ORCA-job data/geom_opt_PO_BP86/70071/70071 E -1454.358076070750
  C          -0.37966319757932      6.58368331526165     -1.08348398517452
  O           0.19346049066051      5.42101041714460     -1.65918774955133
  C           0.11637508978791      4.25072709746472     -0.96843433736560
  C           0.71620271061987      3.12850575258841     -1.58522980464229
  C           0.68927128261402      1.88251588731878     -0.95391541321858
  C           0.05642351949912      1.72746126549483      0.29935878444492
  C          -0.52383287831310      2.85104859876699      0.91643521156804
  C          -0.50107887405746      4.10807891556275      0.29398821238951
  P          -0.06453504179689      0.13902064997947      1.19375943322319
  O          -0.14933377942847      0.30828661172913      2.70273342377015
  C           1.38525559597803     -0.83723622519436      0.66212057470273
  C           1.43406952256923     -1.59132936725229     -0.53126649630266
  C           2.59081566456297     -2.29254035410778     -0.88017379537338
  C           3.72321890606883     -2.26111947541208     -0.03378477193072
  C           3.67534927396589     -1.52568533878848      1.17121470332503
  C           2.50872260443638     -0.82326397302676      1.50889869808016
  O           4.80236525522047     -2.97421613048070     -0.45746104254471
  C           5.96340194798842     -2.98947046939407      0.35721699515744
  C          -1.51726423652240     -0.71304958756343      0.48582214469872
  C          -1.96829275353892     -0.53319216612727     -0.84062239450506
  C          -3.07374272063700     -1.24299897133045     -1.31570538852510
  C          -3.75845680616518     -2.14311958919694     -0.46673957438837
  C          -3.32604139866917     -2.31300949048838      0.86722061961162
  C          -2.21268569098035     -1.59659687402365      1.33150357679747
  O          -4.82190590744483     -2.78891829827574     -1.01870806840469
  C          -5.55129426166945     -3.69983630136100     -0.21272583977098
  H          -0.20359418159596      7.40597328920929     -1.80118804035958
  H          -1.47531189010422      6.46953294012632     -0.92419635600601
  H           0.09731046922821      6.84179014086058     -0.11160593884436
  H           1.20755728561383      3.26904470520944     -2.55897742459974
  H           1.18247106774155      1.02250782172111     -1.43310894587449
  H          -0.98570411660137      2.73048443981183      1.90877072394663
  H          -0.95857875561275      4.96812041443354      0.80107009565736
  H           0.55073346702084     -1.64480064687557     -1.18643532951020
  H           2.64593606299628     -2.88752562100539     -1.80340013638028
  H           4.53565314896628     -1.49973545272837      1.85336719483174
  H           2.45224972979421     -0.26119020623533      2.45420704474452
  H           5.75990484902253     -3.43013165717631      1.35874952180802
  H           6.70530229655694     -3.61771718385846     -0.16921794830844
  H           6.38493525108662     -1.96871014124015      0.49551739335678
  H          -1.45927798936104      0.18406355707605     -1.50317249434193
  H          -3.44149112346960     -1.11381256097749     -2.34402756842129
  H          -3.85182870571635     -2.99316210810227      1.55064672037812
  H          -1.87591755162517     -1.70609328930665      2.37420311911210
  H          -6.00853350349132     -3.19809708640204      0.66935090669165
  H          -4.91284256357102     -4.53842939130136      0.14502609230324
  H          -6.35577756404758     -4.10687086252671     -0.85257734625483
