! RI BP86 def2-SVP D3BJ TIGHTSCF Opt
%pal
nprocs 6
end

* xyz 0 1
C      2.574068    0.169305    0.861759
C      1.588629    0.561238   -0.221990
P     -0.114653    0.125141    0.139642
O     -0.583761    0.637165    1.471393
C     -0.194830   -1.663032    0.004962
C     -1.551889   -2.251246    0.339036
C     -1.078120    0.757232   -1.236703
C     -1.193320    2.268741   -1.272478
H      2.301930    0.630156    1.816102
H      3.585347    0.492037    0.596966
H      2.586545   -0.914555    1.006045
H      1.647293    1.644849   -0.366933
H      1.882963    0.095375   -1.168538
H      0.546461   -2.096865    0.683888
H      0.090415   -1.957499   -1.010685
H     -2.318023   -1.883445   -0.349068
H     -1.853571   -1.974310    1.353682
H     -1.525092   -3.342870    0.271244
H     -0.636317    0.402734   -2.174122
H     -2.086626    0.335086   -1.178628
H     -1.639259    2.644013   -0.346453
H     -1.818526    2.586991   -2.111996
H     -0.209664    2.733758   -1.381604
*