23
Coordinates from ORCA-job data/geom_opt_PO_BP86/27365/27365 E -654.010819751155
  C           2.56754840039165      0.21494075794150      0.93572351975023
  C           1.68340554951116      0.48886975949881     -0.28582989930104
  P          -0.08933917590612      0.09624859871035      0.06358622043490
  O          -0.56564485306908      0.61293205097754      1.41293640039653
  C          -0.22765638488837     -1.73977693808398     -0.10579337317083
  C          -1.57187472750013     -2.25085124497012      0.42432711564811
  C          -1.03753904249725      0.79361503127659     -1.36203368450323
  C          -1.24058039052870      2.30543887519242     -1.21330062800751
  H           2.14879765163942      0.72432864210024      1.82603236829654
  H           3.60326266333855      0.57493194954567      0.77289369175166
  H           2.62272679115444     -0.86845923906602      1.16799763014579
  H           1.71431445275987      1.56651693440851     -0.55409143084716
  H           2.01082584555461     -0.07818665774481     -1.18434233937620
  H           0.61061824668898     -2.16832987820178      0.48410537174217
  H          -0.05341186664097     -2.02179782770722     -1.16705990067252
  H          -2.41872375123938     -1.90899113028730     -0.20550650580175
  H          -1.74363753457293     -1.86601768157353      1.44895831080683
  H          -1.60019106027538     -3.35870763896651      0.44997986682570
  H          -0.52142972406898      0.52413498358211     -2.30920341454559
  H          -2.01678805799991      0.26888118288909     -1.36659695441672
  H          -1.67186133104532      2.53202291443229     -0.21825182343459
  H          -1.92060287311335      2.69981597375545     -1.99487824193306
  H          -0.28221882769280      2.85843958229071     -1.29413129978826
