! RI BP86 def2-SVP D3BJ TIGHTSCF Opt
%pal
nprocs 6
end

* xyz 0 1
C      4.806404   -0.552046   -0.434379
N      3.361494   -0.769644   -0.311549
C      3.113905   -1.957722    0.510473
C      2.759800   -0.895080   -1.651203
C      1.227763   -0.874240   -1.645491
C      0.655182    0.398443   -1.025030
P     -1.167281    0.388945   -0.946413
O     -1.681728    0.114732   -2.346329
C     -1.705722    1.973874   -0.311993
C     -0.978371    2.688206    0.649712
C     -1.441631    3.918503    1.121469
C     -2.635957    4.448500    0.637718
C     -3.368714    3.750393   -0.318796
C     -2.906015    2.521363   -0.789794
C     -1.640395   -0.870334    0.234972
C     -1.124142   -0.892243    1.537984
C     -1.506098   -1.890538    2.436132
C     -2.407833   -2.876974    2.042002
C     -2.928936   -2.866816    0.750256
C     -2.547286   -1.869211   -0.147289
H      5.309543   -1.387159   -0.935299
H      5.260996   -0.416474    0.553456
H      5.011537    0.364551   -0.998726
H      3.597225   -1.854107    1.488868
H      3.489066   -2.873082    0.038804
H      2.046312   -2.083358    0.715413
H      3.092071   -0.054291   -2.274545
H      3.107576   -1.809949   -2.148524
H      0.830888   -1.754815   -1.129688
H      0.872837   -0.953844   -2.680206
H      0.961463    1.266927   -1.619127
H      1.044783    0.539400   -0.012895
H     -0.044279    2.297958    1.043595
H     -0.869759    4.465201    1.867166
H     -2.995182    5.406357    1.004797
H     -4.299533    4.161776   -0.700620
H     -3.481331    1.982471   -1.541554
H     -0.419945   -0.132443    1.865741
H     -1.101698   -1.897866    3.445192
H     -2.706356   -3.653008    2.741998
H     -3.633306   -3.634410    0.440076
H     -2.957345   -1.867947   -1.156375
*