! RIJCOSX M062X def2-TZVP D3ZERO NormalSCF
%pal
nprocs 6
end

* xyz 0 1
  C          -1.64813470179489      2.62524120274101      1.47402079831844
  C          -0.72212595237781      2.75783251625691      0.29033726274922
  C          -0.63872142768855      3.97524179223692     -0.41556298302822
  C           0.19962592736494      4.12681354445673     -1.53132577973060
  C           0.98283025056998      3.04932159836839     -1.97161608541821
  C           0.92018688087102      1.82739099393757     -1.28489575360181
  C           0.08117968870029      1.67222616077987     -0.16226492501287
  P           0.03928759036396      0.07111619141495      0.73935265896589
  O           0.12390094801381      0.22082169493760      2.25678483785589
  C           1.41236407706962     -0.91511051174033      0.01899129488438
  C           1.13525310005724     -1.92698093793660     -0.92304910951608
  C           2.16879620027427     -2.70380228472045     -1.46813363075499
  C           3.49208874827669     -2.46706373433611     -1.06671437985577
  C           3.77196964108707     -1.45866604992676     -0.13093550103980
  C           2.75260999162615     -0.66260196434915      0.42972789115471
  C           3.09128214832386      0.42736567349131      1.41636725001903
  C          -1.49659296335948     -0.75900898430083      0.16606809543596
  C          -2.24021182097401     -0.20952446429396     -0.89853165296658
  C          -3.42902608033080     -0.81535284841244     -1.33248754488313
  C          -3.87925000141448     -1.98150016459922     -0.69549179098080
  C          -3.14015636229528     -2.53304360190049      0.36302874382911
  C          -1.94162061985658     -1.94562093692214      0.81644257554121
  C          -1.16110688270497     -2.57654415917349      1.94292812214264
  H          -2.08294272458838      3.60409393173272      1.75297179475491
  H          -1.11597065430789      2.18254198012387      2.33849892357360
  H          -2.48555760201894      1.93143796163125      1.24505440451613
  H          -1.25053129643011      4.82559691194141     -0.07436226117723
  H           0.24065657761300      5.09329687255357     -2.05701818804789
  H           1.64310981902767      3.15745447932366     -2.84535555039139
  H           1.53310048736291      0.97821618416376     -1.62332716333688
  H           0.09448432478768     -2.10686008710950     -1.23254645088026
  H           1.93852834107656     -3.49100296147183     -2.20186437617231
  H           4.31380728328097     -3.07041240156830     -1.48251926378527
  H           4.81340749737427     -1.27813232171696      0.17997234477742
  H           2.89048803307147      1.42914233689084      0.97948724276730
  H           4.15898641839166      0.38806943974565      1.70528907302645
  H           2.44887224793496      0.35394721711113      2.31547026568346
  H          -1.88169784405225      0.70634319205236     -1.39246208470499
  H          -4.00033435111498     -0.37530718092198     -2.16377530130269
  H          -4.81220633579616     -2.46644612946569     -1.02193365176252
  H          -3.49929462205689     -3.44855564262699      0.85968657934538
  H          -0.20037677545498     -2.99327226442829      1.57082145630030
  H          -1.73103477940848     -3.40108584070816      2.41233186003316
  H          -0.88992042449413     -1.81761740326185      2.70253995267567
*