34
Coordinates from ORCA-job data/geom_opt/69773/69773 E -3608.424221935568
  C      -3.276795     -2.804494      0.137050
  C      -2.559058     -3.016061     -1.035766
  C      -1.603605     -2.083073     -1.448333
  C      -1.344687     -0.923152     -0.695243
  C      -2.082793     -0.728145      0.481428
  C      -3.039520     -1.661283      0.894744
  P      -0.079270      0.231635     -1.317060
  C      -0.289797      1.720163     -0.286615
  C      -1.257197      2.661742     -0.681843
  C      -1.476158      3.827983      0.056728
  C      -0.729325      4.075452      1.204168
  C       0.234401      3.157647      1.611900
  C       0.452701      1.990450      0.872528
  C       1.495972     -0.482656     -0.741067
  C       2.689244      0.050355     -1.263518
  C       3.937120     -0.445009     -0.872072
  C       4.006844     -1.485490      0.048074
  C       2.842338     -2.032408      0.577826
  C       1.595403     -1.533480      0.183820
  Br      5.689846     -2.158381      0.581990
  H      -4.021322     -3.527545      0.459271
  H      -2.741075     -3.905614     -1.633132
  H      -1.056913     -2.274545     -2.370347
  H      -1.928469      0.148729      1.104866
  H      -3.599530     -1.490177      1.810671
  H      -1.857274      2.493210     -1.574672
  H      -2.230021      4.540772     -0.267151
  H      -0.897157      4.981982      1.779494
  H       0.820537      3.346837      2.507701
  H       1.210439      1.298427      1.230291
  H       2.658301      0.866444     -1.984227
  H       4.840784     -0.011328     -1.291697
  H       2.887859     -2.846012      1.297040
  H       0.708176     -1.982977      0.623152
34
Coordinates from ORCA-job data/geom_opt/69773/69773 E -3608.426406233982
  C      -3.237353     -2.785432      0.172942
  C      -2.524314     -3.021996     -1.005543
  C      -1.586959     -2.088962     -1.454775
  C      -1.329426     -0.913371     -0.726468
  C      -2.052515     -0.690257      0.456046
  C      -3.002554     -1.616201      0.899898
  P      -0.083720      0.246559     -1.398084
  C      -0.295488      1.712121     -0.322696
  C      -1.279129      2.649968     -0.684429
  C      -1.501318      3.792450      0.088027
  C      -0.727891      4.027429      1.228017
  C       0.261215      3.111410      1.593276
  C       0.472052      1.960744      0.826463
  C       1.481636     -0.465218     -0.770483
  C       2.686808      0.071032     -1.258483
  C       3.922700     -0.418074     -0.830480
  C       3.965298     -1.472682      0.084475
  C       2.783208     -2.031567      0.573048
  C       1.551052     -1.523665      0.149101
  Br      5.641535     -2.154916      0.661103
  H      -3.978224     -3.509698      0.521778
  H      -2.706188     -3.930850     -1.584674
  H      -1.049371     -2.285710     -2.387240
  H      -1.886591      0.211598      1.049896
  H      -3.556975     -1.423235      1.821914
  H      -1.885598      2.490643     -1.580967
  H      -2.273325      4.506842     -0.208862
  H      -0.893222      4.925800      1.828624
  H       0.870761      3.288476      2.483127
  H       1.248460      1.259712      1.141864
  H       2.669122      0.888085     -1.985188
  H       4.843727      0.018221     -1.221172
  H       2.811607     -2.856301      1.287557
  H       0.640976     -1.972959      0.552386
34
Coordinates from ORCA-job data/geom_opt/69773/69773 E -3608.426936758349
  C      -3.210963     -2.787170      0.189202
  C      -2.536250     -3.008639     -1.017465
  C      -1.612952     -2.071510     -1.484458
  C      -1.329076     -0.909227     -0.745387
  C      -2.011344     -0.696861      0.463287
  C      -2.948292     -1.627202      0.924863
  P      -0.085734      0.255854     -1.442309
  C      -0.296093      1.716914     -0.341712
  C      -1.265106      2.667527     -0.708288
  C      -1.495113      3.795866      0.081148
  C      -0.741849      4.004420      1.242597
  C       0.234837      3.073029      1.609508
  C       0.453419      1.935709      0.825555
  C       1.479775     -0.461127     -0.788754
  C       2.689447      0.050362     -1.290332
  C       3.920289     -0.431147     -0.844152
  C       3.949700     -1.458759      0.105044
  C       2.761728     -1.995668      0.608213
  C       1.536403     -1.491782      0.162476
  Br      5.624812     -2.136426      0.710396
  H      -3.942682     -3.515281      0.552036
  H      -2.738137     -3.910237     -1.603512
  H      -1.102759     -2.248013     -2.437269
  H      -1.811369      0.198098      1.057320
  H      -3.471635     -1.445151      1.868328
  H      -1.849492      2.522484     -1.622894
  H      -2.257909      4.521104     -0.217609
  H      -0.913002      4.893350      1.857178
  H       0.829033      3.228172      2.515032
  H       1.213703      1.214415      1.134807
  H       2.673949      0.844266     -2.043791
  H       4.849466     -0.016476     -1.241217
  H       2.787196     -2.798097      1.348828
  H       0.615999     -1.912800      0.573328
34
Coordinates from ORCA-job data/geom_opt/69773/69773 E -3608.427053316660
  C      -3.208432     -2.788511      0.194486
  C      -2.529049     -3.014456     -1.008437
  C      -1.610884     -2.074763     -1.479932
  C      -1.339463     -0.904937     -0.748860
  C      -2.027318     -0.685795      0.455179
  C      -2.957283     -1.620590      0.921098
  P      -0.087125      0.258574     -1.451053
  C      -0.289452      1.725445     -0.344895
  C      -1.274125      2.664156     -0.698975
  C      -1.505531      3.789821      0.093550
  C      -0.739453      4.006077      1.244876
  C       0.253122      3.086366      1.597551
  C       0.475574      1.952268      0.810455
  C       1.479849     -0.469857     -0.793880
  C       2.690704      0.055554     -1.277043
  C       3.920365     -0.423897     -0.825944
  C       3.944335     -1.462674      0.110825
  C       2.756035     -2.014372      0.596032
  C       1.532400     -1.513007      0.143530
  Br      5.619024     -2.137934      0.725138
  H      -3.935052     -3.518846      0.560704
  H      -2.721946     -3.922343     -1.586706
  H      -1.093002     -2.251222     -2.427888
  H      -1.833113      0.217850      1.036447
  H      -3.485960     -1.434719      1.860238
  H      -1.866794      2.507994     -1.605697
  H      -2.280395      4.506033     -0.193650
  H      -0.912451      4.892094      1.861734
  H       0.858533      3.249210      2.493612
  H       1.248141      1.237915      1.102102
  H       2.674132      0.859255     -2.019543
  H       4.852864     -0.001589     -1.205124
  H       2.783647     -2.826384      1.325221
  H       0.608100     -1.942719      0.534848
34
Coordinates from ORCA-job data/geom_opt/69773/69773 E -3608.427070436216
  C      -3.207178     -2.793654      0.189170
  C      -2.543755     -3.005622     -1.024312
  C      -1.625140     -2.064413     -1.492318
  C      -1.339105     -0.907349     -0.746730
  C      -2.011615     -0.701926      0.468023
  C      -2.941540     -1.638547      0.929952
  P      -0.086072      0.258419     -1.447315
  C      -0.291114      1.726289     -0.340874
  C      -1.264168      2.672050     -0.708118
  C      -1.497440      3.799348      0.081673
  C      -0.745797      4.008724      1.242903
  C       0.234465      3.081879      1.608833
  C       0.459330      1.946092      0.825009
  C       1.482576     -0.469187     -0.789720
  C       2.691683      0.041537     -1.292718
  C       3.922830     -0.437489     -0.844427
  C       3.948187     -1.459435      0.109665
  C       2.762105     -1.996251      0.615051
  C       1.537012     -1.495973      0.165170
  Br      5.623957     -2.132426      0.721858
  H      -3.933033     -3.525263      0.552996
  H      -2.749207     -3.903385     -1.613163
  H      -1.118490     -2.228479     -2.448097
  H      -1.805315      0.192704      1.058616
  H      -3.458525     -1.464439      1.877374
  H      -1.845127      2.519382     -1.622534
  H      -2.262301      4.521734     -0.215103
  H      -0.920893      4.895043      1.857931
  H       0.827924      3.240052      2.513223
  H       1.221870      1.225045      1.125498
  H       2.671920      0.832549     -2.048234
  H       4.855046     -0.028607     -1.237634
  H       2.793662     -2.795357      1.357693
  H       0.613246     -1.913049      0.570657
34
Coordinates from ORCA-job data/geom_opt/69773/69773 E -3608.427074008067
  C      -3.207662     -2.792214      0.188977
  C      -2.539738     -3.007585     -1.021162
  C      -1.620631     -2.066638     -1.489107
  C      -1.339450     -0.906397     -0.746566
  C      -2.016729     -0.697741      0.464974
  C      -2.946635     -1.634377      0.926884
  P      -0.086027      0.258366     -1.446557
  C      -0.290366      1.725810     -0.340462
  C      -1.267558      2.668645     -0.704471
  C      -1.499903      3.796426      0.085075
  C      -0.743629      4.008675      1.242524
  C       0.240271      3.084757      1.605451
  C       0.464684      1.948734      0.821807
  C       1.481868     -0.469859     -0.789585
  C       2.690928      0.044957     -1.288577
  C       3.922040     -0.434760     -0.840408
  C       3.947040     -1.460591      0.109232
  C       2.761034     -2.001065      0.610607
  C       1.535853     -1.500696      0.160941
  Br      5.622270     -2.133926      0.721153
  H      -3.933599     -3.523719      0.552809
  H      -2.742024     -3.907712     -1.607408
  H      -1.110138     -2.233398     -2.442307
  H      -1.814454      0.199491      1.053061
  H      -3.467416     -1.458138      1.871785
  H      -1.852384      2.513524     -1.615946
  H      -2.267600      4.516876     -0.208907
  H      -0.918151      4.895218      1.857364
  H       0.837050      3.245598      2.507134
  H       1.230502      1.230064      1.119708
  H       2.671233      0.839235     -2.040565
  H       4.854517     -0.023387     -1.230299
  H       2.792804     -2.803264      1.349861
  H       0.611995     -1.920910      0.562981
34
Coordinates from ORCA-job data/geom_opt/69773/69773 E -3608.427074651719
  C      -3.207849     -2.791596      0.188155
  C      -2.538776     -3.007635     -1.021147
  C      -1.619487     -2.066608     -1.488779
  C      -1.339475     -0.905916     -0.746451
  C      -2.017976     -0.696674      0.464320
  C      -2.948068     -1.633339      0.925823
  P      -0.085709      0.258334     -1.445897
  C      -0.289839      1.725594     -0.340059
  C      -1.269217      2.666740     -0.702782
  C      -1.501599      3.794674      0.086613
  C      -0.743040      4.008653      1.242196
  C       0.242987      3.086543      1.603790
  C       0.467412      1.950300      0.820415
  C       1.481701     -0.470306     -0.789109
  C       2.690605      0.045472     -1.287476
  C       3.921726     -0.434316     -0.839171
  C       3.946552     -1.461010      0.109490
  C       2.760581     -2.002392      0.610023
  C       1.535348     -1.502013      0.160471
  Br      5.621599     -2.134551      0.721311
  H      -3.933954     -3.523145      0.551750
  H      -2.740498     -3.908233     -1.606917
  H      -1.107867     -2.233666     -2.441334
  H      -1.816434      0.200998      1.052003
  H      -3.469944     -1.457038      1.870145
  H      -1.855801      2.510035     -1.612870
  H      -2.270896      4.514025     -0.205986
  H      -0.917476      4.895417      1.856851
  H       0.841286      3.249060      2.504205
  H       1.234817      1.232791      1.117070
  H       2.670697      0.840423     -2.038732
  H       4.854489     -0.022672     -1.228178
  H       2.792761     -2.805275      1.348572
  H       0.611342     -1.922677      0.561686
