34
Coordinates from ORCA-job data/geom_opt/69773/69773 E -3608.427074651719
  C          -3.20784930084464     -2.79159602446861      0.18815462755113
  C          -2.53877615307331     -3.00763528965733     -1.02114731042812
  C          -1.61948660073554     -2.06660756771118     -1.48877882020990
  C          -1.33947507994832     -0.90591631022462     -0.74645088919971
  C          -2.01797596868301     -0.69667373714825      0.46431975685469
  C          -2.94806790778201     -1.63333900694709      0.92582298492498
  P          -0.08570910172614      0.25833419279557     -1.44589688741178
  C          -0.28983919243367      1.72559436906016     -0.34005914773324
  C          -1.26921658752926      2.66674001435531     -0.70278210797623
  C          -1.50159940382589      3.79467372969239      0.08661273584927
  C          -0.74303983717020      4.00865319662165      1.24219645443818
  C           0.24298713372474      3.08654306277032      1.60378990217175
  C           0.46741210614268      1.95029953082226      0.82041495929102
  C           1.48170098001088     -0.47030588585184     -0.78910864863644
  C           2.69060534101427      0.04547236348128     -1.28747628723958
  C           3.92172561737949     -0.43431634879409     -0.83917090162974
  C           3.94655223640998     -1.46101026489836      0.10949039545618
  C           2.76058147723988     -2.00239192748372      0.61002295015216
  C           1.53534802710156     -1.50201310974082      0.16047112153872
  Br          5.62159877362629     -2.13455119548507      0.72131092066868
  H          -3.93395409781131     -3.52314538429652      0.55174970543683
  H          -2.74049789499779     -3.90823256749301     -1.60691742279537
  H          -1.10786719456258     -2.23366610311552     -2.44133385133452
  H          -1.81643357515501      0.20099814438370      1.05200336871571
  H          -3.46994420357984     -1.45703818610849      1.87014509480334
  H          -1.85580132344900      2.51003532697799     -1.61287049203393
  H          -2.27089635822564      4.51402479551704     -0.20598638836164
  H          -0.91747555432181      4.89541721323265      1.85685103029496
  H           0.84128624524703      3.24906048406520      2.50420484886231
  H           1.23481681426940      1.23279099940209      1.11707005754467
  H           2.67069706963593      0.84042275759817     -2.03873243013684
  H           4.85448948327696     -0.02267183893185     -1.22817841511201
  H           2.79276128293345     -2.80527481790705      1.34857244108900
  H           0.61134174784241     -1.92267661451237      0.56168564459543
