37
Coordinates from ORCA-job data/geom_opt/70575/70575 E -1074.552877197540
  C       5.212665      0.090662      0.749749
  C       3.796917      0.046819      0.257950
  C       2.840623     -0.732235      0.914540
  C       1.525700     -0.799946      0.438592
  C       1.135110     -0.097837     -0.709638
  C       2.110359      0.667542     -1.372001
  C       3.424602      0.736829     -0.897845
  P      -0.548602     -0.122653     -1.406633
  C      -1.382763     -1.469371     -0.504898
  C      -1.206141     -2.783623     -0.974492
  C      -1.813950     -3.868326     -0.336045
  C      -2.612719     -3.658270      0.783552
  C      -2.802792     -2.365491      1.263179
  C      -2.193770     -1.280489      0.623944
  C      -1.322076      1.392777     -0.751933
  C      -2.551139      1.795979     -1.305101
  C      -3.204572      2.946971     -0.855791
  C      -2.638938      3.718648      0.154243
  C      -1.421971      3.339325      0.713280
  C      -0.768860      2.186993      0.263383
  H       5.251780     -0.023792      1.838144
  H       5.680808      1.050589      0.507632
  H       5.794329     -0.713153      0.288150
  H       3.108716     -1.295796      1.805608
  H       0.818401     -1.412399      0.991807
  H       1.854801      1.224467     -2.272085
  H       4.152743      1.335312     -1.440586
  H      -0.585060     -2.977118     -1.847641
  H      -1.661853     -4.875097     -0.716072
  H      -3.087184     -4.499797      1.281075
  H      -3.426566     -2.195823      2.137118
  H      -2.364657     -0.288654      1.034512
  H      -3.017205      1.210171     -2.095794
  H      -4.154154      3.237856     -1.297171
  H      -3.144403      4.614514      0.504583
  H      -0.975161      3.939284      1.501994
  H       0.176982      1.925131      0.730689
37
Coordinates from ORCA-job data/geom_opt/70575/70575 E -1074.555374916256
  C       5.180884      0.094476      0.787222
  C       3.765634      0.047005      0.264634
  C       2.790273     -0.733641      0.899864
  C       1.485160     -0.801372      0.400937
  C       1.118230     -0.096755     -0.754991
  C       2.101669      0.674869     -1.396823
  C       3.400796      0.754336     -0.890018
  P      -0.556581     -0.129658     -1.491133
  C      -1.372098     -1.464058     -0.540025
  C      -1.186032     -2.787099     -0.979518
  C      -1.776700     -3.858535     -0.305405
  C      -2.582098     -3.623367      0.812250
  C      -2.786303     -2.314072      1.253616
  C      -2.182000     -1.243884      0.585472
  C      -1.323503      1.373148     -0.780663
  C      -2.566855      1.779524     -1.297740
  C      -3.212321      2.917397     -0.807995
  C      -2.614775      3.682408      0.197435
  C      -1.374348      3.298940      0.712226
  C      -0.736564      2.150992      0.230022
  H       5.206056     -0.035100      1.880112
  H       5.659151      1.058529      0.555552
  H       5.786092     -0.707756      0.332375
  H       3.043376     -1.296595      1.802539
  H       0.756084     -1.415593      0.934739
  H       1.854652      1.231341     -2.305961
  H       4.139339      1.368648     -1.412175
  H      -0.569665     -2.990274     -1.860323
  H      -1.616129     -4.879178     -0.661953
  H      -3.053332     -4.459432      1.335887
  H      -3.415429     -2.121442      2.126531
  H      -2.355060     -0.231553      0.958152
  H      -3.044367      1.201275     -2.094426
  H      -4.179861      3.213029     -1.221633
  H      -3.113539      4.578574      0.576098
  H      -0.899746      3.892046      1.498280
  H       0.229911      1.872824      0.656834
37
Coordinates from ORCA-job data/geom_opt/70575/70575 E -1074.555949905638
  C       5.167100      0.104229      0.803613
  C       3.755238      0.053314      0.266737
  C       2.759241     -0.691037      0.916836
  C       1.460168     -0.765030      0.406885
  C       1.115251     -0.097311     -0.777980
  C       2.113473      0.640773     -1.436063
  C       3.405158      0.725000     -0.916146
  P      -0.561976     -0.129535     -1.534340
  C      -1.373459     -1.464344     -0.559099
  C      -1.203257     -2.786984     -1.005146
  C      -1.780026     -3.855241     -0.315767
  C      -2.557612     -3.616466      0.823613
  C      -2.745370     -2.304236      1.268971
  C      -2.154533     -1.236549      0.585314
  C      -1.326740      1.373769     -0.794503
  C      -2.559346      1.799763     -1.320493
  C      -3.205396      2.926753     -0.809201
  C      -2.617104      3.662845      0.226214
  C      -1.384504      3.257407      0.747561
  C      -0.745833      2.119478      0.243702
  H       5.183902      0.005825      1.900915
  H       5.664975      1.050819      0.538984
  H       5.774795     -0.719463      0.386692
  H       2.998168     -1.220286      1.844988
  H       0.710151     -1.345929      0.949085
  H       1.876105      1.165350     -2.367542
  H       4.157659      1.317318     -1.446604
  H      -0.609309     -2.984347     -1.903598
  H      -1.630988     -4.877593     -0.675847
  H      -3.019359     -4.451139      1.359584
  H      -3.352051     -2.107712      2.158053
  H      -2.304307     -0.219188      0.954299
  H      -3.021844      1.240383     -2.140405
  H      -4.166976      3.238043     -1.228158
  H      -3.116536      4.552383      0.621749
  H      -0.916593      3.826657      1.556390
  H       0.211734      1.812281      0.670707
37
Coordinates from ORCA-job data/geom_opt/70575/70575 E -1074.556073225667
  C       5.163381      0.101603      0.808479
  C       3.755066      0.049256      0.268407
  C       2.758543     -0.700986      0.911110
  C       1.461675     -0.777978      0.398121
  C       1.118558     -0.104122     -0.783982
  C       2.115750      0.640539     -1.436026
  C       3.405473      0.724451     -0.912658
  P      -0.563828     -0.126795     -1.545028
  C      -1.382885     -1.462829     -0.564253
  C      -1.189122     -2.787042     -0.994818
  C      -1.760815     -3.855151     -0.301463
  C      -2.554906     -3.614467      0.825878
  C      -2.765849     -2.300314      1.254201
  C      -2.182153     -1.231557      0.566535
  C      -1.323642      1.384152     -0.798146
  C      -2.567980      1.796979     -1.305809
  C      -3.214876      2.919838     -0.787100
  C      -2.616303      3.663043      0.237057
  C      -1.371790      3.269923      0.738663
  C      -0.730349      2.137204      0.227313
  H       5.179890     -0.006542      1.904333
  H       5.661564      1.048466      0.547735
  H       5.777050     -0.716566      0.390267
  H       2.999381     -1.233717      1.836486
  H       0.708853     -1.363645      0.929828
  H       1.875441      1.167722     -2.364630
  H       4.159451      1.320844     -1.435794
  H      -0.580128     -2.980955     -1.883260
  H      -1.593748     -4.878961     -0.647665
  H      -3.011704     -4.448960      1.364854
  H      -3.386862     -2.102900      2.132550
  H      -2.347396     -0.210534      0.916278
  H      -3.035072      1.228030     -2.115772
  H      -4.185652      3.221701     -1.190108
  H      -3.116695      4.548587      0.638244
  H      -0.895603      3.846268      1.536939
  H       0.237280      1.835411      0.633230
37
Coordinates from ORCA-job data/geom_opt/70575/70575 E -1074.556090674399
  C       5.163849      0.106654      0.804954
  C       3.756756      0.053167      0.266560
  C       2.755703     -0.677010      0.924664
  C       1.457941     -0.754700      0.414460
  C       1.119870     -0.102394     -0.780969
  C       2.121780      0.621538     -1.448961
  C       3.412677      0.705909     -0.928147
  P      -0.564092     -0.125429     -1.541352
  C      -1.382105     -1.464769     -0.561368
  C      -1.201812     -2.785929     -1.006987
  C      -1.772997     -3.856656     -0.317151
  C      -2.551709     -3.621082      0.821182
  C      -2.748941     -2.310303      1.264337
  C      -2.166156     -1.238566      0.580699
  C      -1.326095      1.385528     -0.793316
  C      -2.559393      1.809386     -1.318587
  C      -3.207773      2.932412     -0.801847
  C      -2.621758      3.663102      0.237590
  C      -1.388440      3.259038      0.756402
  C      -0.745049      2.126451      0.247515
  H       5.180154      0.019520      1.902296
  H       5.668727      1.044007      0.524971
  H       5.771993     -0.723305      0.403399
  H       2.994431     -1.192422      1.859956
  H       0.700109     -1.323814      0.956470
  H       1.883735      1.130911     -2.387629
  H       4.171902      1.284241     -1.463072
  H      -0.603966     -2.974083     -1.903799
  H      -1.617399     -4.878100     -0.674287
  H      -3.007081     -4.457328      1.357789
  H      -3.357998     -2.117882      2.151686
  H      -2.319511     -0.219415      0.940483
  H      -3.015370      1.248698     -2.140115
  H      -4.169551      3.243876     -1.217864
  H      -3.123543      4.547787      0.637781
  H      -0.922859      3.826452      1.566759
  H       0.213970      1.814508      0.665497
37
Coordinates from ORCA-job data/geom_opt/70575/70575 E -1074.556094707022
  C       5.162826      0.105029      0.804862
  C       3.755936      0.051730      0.266391
  C       2.756507     -0.683008      0.921797
  C       1.458812     -0.760488      0.411247
  C       1.119717     -0.103121     -0.781084
  C       2.120224      0.625185     -1.446314
  C       3.411354      0.709036     -0.925484
  P      -0.563912     -0.124969     -1.540842
  C      -1.382461     -1.463573     -0.561340
  C      -1.195734     -2.785390     -1.002477
  C      -1.767485     -3.855946     -0.312667
  C      -2.552492     -3.619387      0.820907
  C      -2.755793     -2.308244      1.259772
  C      -2.172958     -1.236560      0.576066
  C      -1.324984      1.385917     -0.793158
  C      -2.561745      1.805692     -1.313635
  C      -3.209758      2.929053     -0.796863
  C      -2.620127      3.663361      0.237701
  C      -1.383829      3.263166      0.752045
  C      -0.740476      2.130632      0.242991
  H       5.179319      0.013074      1.901775
  H       5.665846      1.044722      0.529528
  H       5.772076     -0.722000      0.399153
  H       2.996499     -1.202245      1.854566
  H       0.701984     -1.333577      0.950492
  H       1.881191      1.138289     -2.382635
  H       4.169946      1.290251     -1.458028
  H      -0.592667     -2.974285     -1.895567
  H      -1.607411     -4.877959     -0.666063
  H      -3.008073     -4.455503      1.357526
  H      -3.369858     -2.115559      2.143566
  H      -2.331463     -0.216883      0.932196
  H      -3.020624      1.241902     -2.131340
  H      -4.173998      3.237901     -1.209006
  H      -3.121751      4.548085      0.637998
  H      -0.915871      3.833757      1.558749
  H       0.221235      1.821912      0.657171
37
Coordinates from ORCA-job data/geom_opt/70575/70575 E -1074.556095404952
  C       5.162376      0.104837      0.804714
  C       3.755435      0.051490      0.266179
  C       2.756172     -0.683035      0.922124
  C       1.458486     -0.760572      0.411514
  C       1.119648     -0.103482     -0.781063
  C       2.120022      0.624579     -1.446697
  C       3.411268      0.708548     -0.925882
  P      -0.563895     -0.124636     -1.540415
  C      -1.382627     -1.463114     -0.561306
  C      -1.193892     -2.784960     -1.001697
  C      -1.765706     -3.855732     -0.312195
  C      -2.552666     -3.619179      0.819974
  C      -2.757983     -2.308134      1.258040
  C      -2.175115     -1.236179      0.574725
  C      -1.324474      1.386101     -0.792639
  C      -2.562205      1.804659     -1.311904
  C      -3.210242      2.927975     -0.794903
  C      -2.619495      3.663185      0.238303
  C      -1.382274      3.264291      0.751354
  C      -0.738870      2.131825      0.242175
  H       5.178955      0.012652      1.901626
  H       5.665200      1.044821      0.529897
  H       5.771736     -0.721947      0.398611
  H       2.996480     -1.201838      1.855045
  H       0.701347     -1.333363      0.950679
  H       1.880800      1.137360     -2.383163
  H       4.170205      1.289303     -1.458431
  H      -0.589152     -2.973611     -1.893724
  H      -1.604354     -4.877883     -0.664669
  H      -3.008334     -4.455475      1.356321
  H      -3.373600     -2.115878      2.140871
  H      -2.334974     -0.216394      0.929989
  H      -3.021761      1.239905     -2.128575
  H      -4.175225      3.236241     -1.205787
  H      -3.121109      4.547912      0.638723
  H      -0.913812      3.835904      1.557069
  H       0.223634      1.823825      0.655114
