37
Coordinates from ORCA-job data/geom_opt/70575/70575 E -1074.556095404952
  C           5.16237630525806      0.10483668510532      0.80471435052165
  C           3.75543535538109      0.05149006346209      0.26617923456135
  C           2.75617194807653     -0.68303479103391      0.92212443462817
  C           1.45848584839056     -0.76057244896037      0.41151379192638
  C           1.11964832218720     -0.10348202549506     -0.78106284182251
  C           2.12002201536238      0.62457872004125     -1.44669741961756
  C           3.41126801060447      0.70854814272745     -0.92588204647298
  P          -0.56389504729274     -0.12463632432800     -1.54041548247669
  C          -1.38262743791127     -1.46311423622385     -0.56130605110191
  C          -1.19389184021783     -2.78496021282472     -1.00169746886011
  C          -1.76570598776540     -3.85573233125385     -0.31219542175322
  C          -2.55266630482223     -3.61917911228550      0.81997364578052
  C          -2.75798300830499     -2.30813368745899      1.25804037279908
  C          -2.17511544532107     -1.23617872977171      0.57472523507516
  C          -1.32447389606220      1.38610119314032     -0.79263943524019
  C          -2.56220520683073      1.80465875255315     -1.31190350092399
  C          -3.21024153048176      2.92797542652571     -0.79490253499213
  C          -2.61949529541020      3.66318539649973      0.23830328334830
  C          -1.38227448886249      3.26429081644783      0.75135362718435
  C          -0.73886973646312      2.13182458885196      0.24217471722125
  H           5.17895536123096      0.01265156712926      1.90162642423551
  H           5.66519982886794      1.04482053387698      0.52989707365021
  H           5.77173621969177     -0.72194724275011      0.39861066143992
  H           2.99648019253814     -1.20183803834208      1.85504524044227
  H           0.70134682348472     -1.33336275473704      0.95067948993322
  H           1.88080029863492      1.13736008063389     -2.38316337175670
  H           4.17020538122873      1.28930274970885     -1.45843069412197
  H          -0.58915230713532     -2.97361095940323     -1.89372358241692
  H          -1.60435367338553     -4.87788312475093     -0.66466900042750
  H          -3.00833414046627     -4.45547484181041      1.35632066339971
  H          -3.37359951666104     -2.11587799224075      2.14087146514481
  H          -2.33497373328913     -0.21639409697338      0.92998938590750
  H          -3.02176074723269      1.23990531231972     -2.12857520057097
  H          -4.17522480486329      3.23624074757851     -1.20578704295658
  H          -3.12110921612412      4.54791232318648      0.63872291905641
  H          -0.91381247934797      3.83590371028431      1.55706903181345
  H           0.22363393331392      1.82382514057107      0.65511404744271
