38
Coordinates from ORCA-job data/geom_opt/316378/316378 E -887.844014115919
  C          -0.22355918630612      1.55564753822816      1.73017409265232
  C          -0.50060134204134      1.77761385959188      0.23780852665522
  C           0.48660479767039      2.83762787589088     -0.28941366081166
  C          -1.93391183056158      2.29718837495561      0.03979620135451
  P          -0.23491411141986      0.27918216047171     -0.92976973864750
  C           1.39991300093286     -0.36653140699183     -0.33787498719339
  C           2.48505681909174     -0.17363572006846     -1.21133880130639
  C           3.77334303858164     -0.60218263341698     -0.87604435112934
  C           3.99913266663219     -1.24889805645758      0.34081575949253
  C           2.93078611781060     -1.45833700727081      1.21902056231086
  C           1.64841989630557     -1.01740086496816      0.88506355631046
  C          -1.49283659098980     -1.11366343874228     -0.52839325038189
  C          -1.94577966114555     -1.30002359305542      0.92573488739554
  C          -2.73068102187168     -0.81251474836498     -1.39866899662155
  C          -0.85698186769498     -2.41925070340707     -1.04067583022559
  H           0.82129075581608      1.26465418562316      1.90784629296077
  H          -0.87415837700087      0.79037577211282      2.17283459038593
  H          -0.40013715134927      2.49776399104837      2.27941248312153
  H           0.38086500863200      3.76874455194696      0.29418944788111
  H           1.53061174448998      2.49988033378428     -0.19503842452602
  H           0.29883318793867      3.07367586121478     -1.34839050674554
  H          -2.04299361550833      3.28172468158869      0.52690969456647
  H          -2.17660150641643      2.42306091748275     -1.02755169534557
  H          -2.68376398062360      1.62720428968059      0.48594734103296
  H           2.30795851384836      0.31848892969057     -2.17152606151995
  H           4.60003803097007     -0.43643354754528     -1.57186999854761
  H           5.00288184340497     -1.59172722316454      0.60500923146642
  H           3.09771889534141     -1.96508573385207      2.17331420146544
  H           0.83535840271735     -1.18454618352808      1.59065751624930
  H          -1.11265394842747     -1.52921089181766      1.60416689703163
  H          -2.65263915253804     -2.14698748240340      0.98281336954786
  H          -2.46954810262101     -0.41472724182440      1.31323755863292
  H          -2.45649786958247     -0.71098266379604     -2.45984578812719
  H          -3.45916664283423     -1.63730864349417     -1.30925306173630
  H          -3.23860443148038      0.11323513913892     -1.09272228671052
  H          -0.02385883435652     -2.75204754164106     -0.40565579810298
  H          -1.61728099770524     -3.21931598038854     -1.05367773535109
  H          -0.47164349770910     -2.30525615625134     -2.06704223748368
