! RIJCOSX M062X def2-TZVP D3ZERO NormalSCF
%pal
nprocs 6
end

* xyz 0 1
  C           3.50839188115713     -1.01304539557273      3.53298055402019
  C           2.67820085895223     -1.22836600276427      2.27705989439909
  O           2.46860699422191      0.02527444489556      1.63036779474035
  Si          1.59618222138388      0.18503641222562      0.20219287887330
  C          -0.13865459396593     -0.48559347577488      0.31249397202782
  C          -0.89825886979282      0.16482126388084      1.48231490819440
  P          -2.77203912591751      0.25576350370426      1.36010293685304
  C          -3.11325261349502     -1.44307602776386      0.69842374151883
  C          -3.13329237602282     -1.77435644320888     -0.67337665031593
  C          -3.34349523358875     -3.10129808583385     -1.08175328709285
  C          -3.52987605915252     -4.11585097049410     -0.12748135994502
  C          -3.51453480127331     -3.79616538635899      1.24100862625340
  C          -3.31733742597755     -2.46754573007442      1.64929708068680
  C          -2.99564345775267      1.29522872211075     -0.15138333893577
  C          -4.29736585170856      1.36660934183699     -0.70277534333874
  C          -4.56865393658991      2.18739577314980     -1.80618071604869
  C          -3.54581086793108      2.96952037247413     -2.37231874228363
  C          -2.25456415549874      2.91815245385844     -1.82518524398019
  C          -1.97637196123264      2.08873059210804     -0.72435612416716
  O           2.34980261685821     -0.58155127719925     -1.07330118994886
  C           3.64443386210558     -0.23668132526392     -1.56825654746183
  C           4.01274457662033     -1.17876349108076     -2.70406378975745
  O           1.51522067555708      1.83770396781828     -0.04601153563717
  C           2.10160664985117      2.85266423421132      0.77173491548675
  C           3.59338096621232      3.01527121545331      0.50714779956711
  H           4.49215905059021     -0.57016015496528      3.27748750303876
  H           3.68210828622755     -1.97316756223308      4.06018943745605
  H           2.99017665360436     -0.32021222335852      4.22618068584895
  H           1.69928146726861     -1.69592841296815      2.54100468952971
  H           3.19443644019108     -1.93682723741113      1.58743226115950
  H          -0.15284729580143     -1.59133630846302      0.39262246547584
  H          -0.62165657623438     -0.25601222967857     -0.66141752988879
  H          -0.68084647985187     -0.36112605123746      2.43497602201149
  H          -0.57781184999465      1.21615204200536      1.65221322115640
  H          -2.98523125572986     -0.98578850678895     -1.42637517428270
  H          -3.35648380851587     -3.34543397313273     -2.15549847274909
  H          -3.69388438617434     -5.15544467260350     -0.45054584307498
  H          -3.66933913685967     -4.58411879094371      1.99447103033800
  H          -3.32448534111255     -2.21476825645863      2.72254254069418
  H          -5.10725730309198      0.76327185596487     -0.26107379943883
  H          -5.58695629203614      2.22185646524905     -2.22375025213759
  H          -3.75761618634090      3.61751283117447     -3.23665893602890
  H          -1.44378587530194      3.52257017113511     -2.26071149720677
  H          -0.94633132012108      2.06376258280211     -0.33836564356275
  H           4.39919908706823     -0.30205376124217     -0.74972739969433
  H           3.64341515450131      0.81964078188024     -1.92287678352169
  H           4.03089653786402     -2.22939393274978     -2.35037140996767
  H           5.01281503718870     -0.92833482024344     -3.11308239803909
  H           3.26971170033818     -1.10634296812873     -3.52355265645407
  H           1.56036521100178      3.79551086475608      0.54135570048142
  H           1.93292608011049      2.62393673469713      1.84782192145244
  H           3.78298336503111      3.22565397641512     -0.56514970427937
  H           4.13769172951884      2.09209272127375      0.79061315160397
  H           4.00694733364214      3.85461014891608      1.10397663637211
*