22
Coordinates from ORCA-job data/geom_opt/27365/27365 E -578.561089204371
  C      -1.896337     -2.046541      0.116894
  C      -1.398604     -0.740020     -0.479288
  P      -0.158618      0.103895      0.603008
  C       1.328222     -0.945779      0.273437
  C       2.561074     -0.456096      1.015362
  C       0.241938      1.573428     -0.446349
  C      -0.853679      2.626396     -0.413962
  H      -1.090106     -2.779478      0.222400
  H      -2.660416     -2.486833     -0.532338
  H      -2.344898     -1.892386      1.104428
  H      -2.257379     -0.074590     -0.615819
  H      -0.972063     -0.925916     -1.470817
  H       1.115181     -1.969655      0.597820
  H       1.535201     -0.983033     -0.801456
  H       3.402634     -1.131537      0.828996
  H       2.862093      0.544601      0.689282
  H       2.392079     -0.422897      2.097273
  H       1.167248      2.027837     -0.077231
  H       0.424031      1.262348     -1.480609
  H      -1.793718      2.249111     -0.829076
  H      -0.554787      3.495603     -1.009207
  H      -1.049097      2.971544      0.607252
22
Coordinates from ORCA-job data/geom_opt/27365/27365 E -578.562783267323
  C      -1.908199     -2.063292      0.115898
  C      -1.402335     -0.743300     -0.474353
  P      -0.161026      0.107990      0.617669
  C       1.334099     -0.943491      0.275482
  C       2.583063     -0.463389      1.021227
  C       0.238039      1.580291     -0.445815
  C      -0.862150      2.645997     -0.424018
  H      -1.098114     -2.802158      0.223782
  H      -2.676136     -2.509980     -0.536846
  H      -2.358406     -1.912558      1.110185
  H      -2.259307     -0.063031     -0.610206
  H      -0.969859     -0.916933     -1.476906
  H       1.104938     -1.974233      0.592723
  H       1.531581     -0.979771     -0.811681
  H       3.431195     -1.141975      0.832697
  H       2.891054      0.544628      0.700472
  H       2.413738     -0.430921      2.109479
  H       1.173705      2.027067     -0.071009
  H       0.432101      1.256046     -1.484791
  H      -1.808676      2.267431     -0.841834
  H      -0.564693      3.521829     -1.023848
  H      -1.064616      2.993757      0.601693
22
Coordinates from ORCA-job data/geom_opt/27365/27365 E -578.563077229981
  C      -1.916913     -2.070294      0.114777
  C      -1.400977     -0.750761     -0.473345
  P      -0.163409      0.109447      0.628262
  C       1.340504     -0.938733      0.275457
  C       2.593770     -0.466481      1.023306
  C       0.231636      1.582815     -0.447775
  C      -0.864485      2.655773     -0.427129
  H      -1.108768     -2.811397      0.231223
  H      -2.682629     -2.520916     -0.538986
  H      -2.370200     -1.915005      1.107823
  H      -2.249966     -0.059979     -0.615171
  H      -0.961110     -0.920495     -1.474816
  H       1.100706     -1.970827      0.584188
  H       1.530439     -0.971022     -0.814488
  H       3.444954     -1.141723      0.832631
  H       2.902111      0.544951      0.710225
  H       2.422585     -0.438484      2.112174
  H       1.174179      2.018537     -0.073781
  H       0.427041      1.250158     -1.485234
  H      -1.814886      2.278876     -0.840169
  H      -0.570454      3.532066     -1.029164
  H      -1.064131      3.003493      0.599993
22
Coordinates from ORCA-job data/geom_opt/27365/27365 E -578.563175547527
  C      -1.920618     -2.073665      0.114766
  C      -1.399124     -0.758262     -0.473659
  P      -0.165085      0.110990      0.633280
  C       1.346113     -0.933305      0.273761
  C       2.597592     -0.469616      1.026690
  C       0.224707      1.584449     -0.453169
  C      -0.864271      2.662318     -0.427786
  H      -1.113583     -2.814602      0.238867
  H      -2.683612     -2.528323     -0.538672
  H      -2.376156     -1.913076      1.105708
  H      -2.241089     -0.060107     -0.620476
  H      -0.952793     -0.926433     -1.471761
  H       1.096783     -1.965966      0.572655
  H       1.532186     -0.958256     -0.816331
  H       3.451144     -1.140324      0.833076
  H       2.904980      0.545248      0.724348
  H       2.422715     -0.450504      2.114964
  H       1.173918      2.008903     -0.083341
  H       0.414867      1.244715     -1.488563
  H      -1.819589      2.287629     -0.831094
  H      -0.574513      3.536814     -1.033705
  H      -1.054573      3.011374      0.600442
22
Coordinates from ORCA-job data/geom_opt/27365/27365 E -578.563192505168
  C      -1.923283     -2.073015      0.115500
  C      -1.397122     -0.762845     -0.475877
  P      -0.165022      0.110185      0.632246
  C       1.349472     -0.931229      0.272161
  C       2.597749     -0.469446      1.027958
  C       0.221763      1.584473     -0.456148
  C      -0.863615      2.663317     -0.425463
  H      -1.118050     -2.814406      0.246327
  H      -2.684199     -2.529608     -0.538496
  H      -2.382133     -1.907049      1.103748
  H      -2.234822     -0.061069     -0.627728
  H      -0.945952     -0.934198     -1.470543
  H       1.097319     -1.963992      0.567288
  H       1.534855     -0.952102     -0.817489
  H       3.453195     -1.136588      0.832072
  H       2.902637      0.547598      0.731298
  H       2.421527     -0.456330      2.115841
  H       1.173869      2.003918     -0.088845
  H       0.407136      1.242596     -1.491013
  H      -1.821863      2.289498     -0.821953
  H      -0.576736      3.536453     -1.034174
  H      -1.046727      3.013845      0.603288
22
Coordinates from ORCA-job data/geom_opt/27365/27365 E -578.563195708059
  C      -1.922322     -2.072802      0.116322
  C      -1.396805     -0.764001     -0.476555
  P      -0.164784      0.110595      0.630261
  C       1.350251     -0.930145      0.270946
  C       2.596351     -0.470402      1.029942
  C       0.220540      1.584641     -0.458827
  C      -0.863013      2.664062     -0.424643
  H      -1.116639     -2.813235      0.249191
  H      -2.682028     -2.530993     -0.537845
  H      -2.382604     -1.905817      1.103613
  H      -2.233896     -0.061799     -0.628916
  H      -0.944457     -0.935977     -1.470370
  H       1.096374     -1.963177      0.563249
  H       1.536665     -0.947676     -0.818405
  H       3.452613     -1.135800      0.832106
  H       2.900445      0.548109      0.737905
  H       2.419189     -0.462266      2.117614
  H       1.174266      2.002031     -0.093788
  H       0.402093      1.241448     -1.493738
  H      -1.823476      2.290577     -0.815812
  H      -0.578055      3.535635     -1.036367
  H      -1.040710      3.016997      0.604117
22
Coordinates from ORCA-job data/geom_opt/27365/27365 E -578.563196375828
  C      -1.923629     -2.072185      0.116601
  C      -1.395978     -0.764930     -0.477602
  P      -0.164523      0.109843      0.629294
  C       1.350868     -0.930133      0.270555
  C       2.596381     -0.469644      1.029925
  C       0.220390      1.584192     -0.459086
  C      -0.862875      2.663755     -0.423297
  H      -1.118765     -2.812904      0.252820
  H      -2.681979     -2.531114     -0.538698
  H      -2.386486     -1.903256      1.102363
  H      -2.232035     -0.061998     -0.632153
  H      -0.941969     -0.938922     -1.470326
  H       1.097377     -1.963263      0.562736
  H       1.537363     -0.947020     -0.818806
  H       3.453486     -1.133670      0.830844
  H       2.899074      0.549677      0.739182
  H       2.419741     -0.463306      2.117694
  H       1.174574      2.001079     -0.094713
  H       0.400539      1.240994     -1.494251
  H      -1.824336      2.290215     -0.812000
  H      -0.579005      3.534686     -1.036531
  H      -1.038213      3.017907      0.605450
