37
Coordinates from ORCA-job data/geom_opt_P_BP86/70575/70575 E -1075.102121869903
  C           5.15790867531643      0.11140747154382      0.81935859132204
  C           3.75311993899555      0.05404128485437      0.26959176685121
  C           2.74823113776444     -0.69586775684740      0.91609166997898
  C           1.44858371136046     -0.77774279971717      0.39390599722118
  C           1.11506616120361     -0.10971891096028     -0.80228170154958
  C           2.11884594886528      0.63356454762405     -1.46052223107985
  C           3.41148526508437      0.72174862763981     -0.92632425482168
  P          -0.56938375036071     -0.12836698395207     -1.56810278517351
  C          -1.38677677328259     -1.46337111115207     -0.57690627452385
  C          -1.17964087389182     -2.79540433246702     -1.00034749790315
  C          -1.74891537454825     -3.86584597569995     -0.29470408480292
  C          -2.55106820713000     -3.61831734951429      0.83329136408441
  C          -2.77388162911167     -2.29640850603399      1.25265901348236
  C          -2.19312406377263     -1.22371022241817      0.55531617500739
  C          -1.32295373511109      1.38365206514178     -0.80750067630733
  C          -2.57494644116854      1.80235078561180     -1.31109080197120
  C          -3.21957130244105      2.92786479601769     -0.77635411813569
  C          -2.61085203409485      3.66352551656541      0.25569398689162
  C          -1.35900602121167      3.26311748968660      0.75146324659073
  C          -0.71836226602657      2.12814735770923      0.22664863465039
  H           5.16950438389564      0.00831493031011      1.92276243717117
  H           5.66271302543998      1.06178986238826      0.55448060995836
  H           5.77978003884803     -0.71367142769901      0.40830471503036
  H           2.98733420946790     -1.22332878057279      1.85394806746445
  H           0.68169066754920     -1.36107136247768      0.92530268293710
  H           1.87881289318288      1.15595072235714     -2.40100222888292
  H           4.17666385755721      1.31562601328687     -1.45196859123704
  H          -0.56092122720826     -2.99053436806223     -1.89142179387956
  H          -1.57372841947434     -4.89912348890133     -0.63231694074554
  H          -3.00606643454375     -4.45693698285648      1.38247421149227
  H          -3.40218409188145     -2.09603710426865      2.13455883430171
  H          -2.36256200684034     -0.19087942553208      0.89452209195507
  H          -3.04747869491850      1.23407152282254     -2.12888287633540
  H          -4.19819813150227      3.23865154485693     -1.17387022051735
  H          -3.11131021680162      4.55237683191438      0.66969683632609
  H          -0.87651533355560      3.83668355247087      1.55826109528900
  H           0.25770711434657      1.81345096633099      0.62526304986067
