! RIJCOSX M062X def2-TZVP D3ZERO NormalSCF
%pal
nprocs 6
end

* xyz 0 1
  C           5.16527663511389      0.34403175891872      1.50402649275382
  C           3.79452409264205      0.18034646573454      0.89356838083724
  C           3.60050476061875      0.31208282914568     -0.49895819620586
  C           2.33708386785000      0.12738111537166     -1.07555309381266
  C           1.22962112522300     -0.18722678979988     -0.26279893875194
  C           1.40984399824515     -0.33551562870383      1.12635713712499
  C           2.67883544692157     -0.14702077973031      1.69361213082793
  P          -0.38175934553164     -0.37576274252413     -1.10698980644657
  O          -0.25448074462012     -0.82140603349744     -2.55399829150562
  C          -1.34252328250759     -1.54711892499798     -0.07580227426608
  C          -1.34705309147499     -2.89280782243583     -0.49546390282668
  C          -2.04180084076474     -3.85601182906633      0.25184242972645
  C          -2.73752544109067     -3.47921244069524      1.41406677645780
  C          -2.74730075694893     -2.13512605515646      1.82462642560231
  C          -2.05491711601697     -1.16677514286864      1.07918942635049
  C          -1.22813459892797      1.23925773552460     -0.92465258072004
  C          -1.00634343107872      2.11668877153269      0.15564339786105
  C          -1.71563191579391      3.32668355582502      0.23092887360795
  C          -2.63740637706502      3.66581574501746     -0.77434993749210
  C          -2.84543525162597      2.79898054992771     -1.86169310694773
  C          -2.14078753670322      1.58822464601987     -1.94076047341123
  H           5.70955566004025     -0.62536451764192      1.51775938785750
  H           5.10729336668391      0.70036863393753      2.55163144593157
  H           5.78652781732498      1.05776110668753      0.92742424596644
  H           4.45984071862720      0.56013706817509     -1.14260675336406
  H           2.19119666075455      0.21257491011848     -2.16360959067626
  H           0.55917970307251     -0.61344168855867      1.76786842967700
  H           2.80948244525678     -0.26408218258488      2.78147493419495
  H          -0.81258390252761     -3.16152434456371     -1.41991305361010
  H          -2.04644346846888     -4.90659748893771     -0.07727142856733
  H          -3.28400848714785     -4.23583185609748      1.99797351960051
  H          -3.30562984911917     -1.83701798673805      2.72541310976254
  H          -2.08456261796408     -0.10996565597027      1.38700628497972
  H          -0.26475813803362      1.86258211156364      0.92892321235905
  H          -1.54035550806607      4.01286256848116      1.07381150975305
  H          -3.18958920970836      4.61641842704178     -0.71497847246895
  H          -3.55718776882884      3.07212752386312     -2.65596189120751
  H          -2.27254861835966      0.90348438768250     -2.79289475895164
*