13
Coordinates from ORCA-job data/geom_opt/68983/68983 E -460.782743240856
  C      -1.245699     -1.033442     -0.126558
  P      -0.066982      0.141767     -0.897138
  C      -0.281949      1.584298      0.215145
  C       1.515420     -0.524977     -0.252360
  H      -1.078237     -1.129437      0.950370
  H      -2.274989     -0.697080     -0.282251
  H      -1.143197     -2.025279     -0.576637
  H      -1.271052      2.029818      0.073701
  H       0.467609      2.349995     -0.005515
  H      -0.182354      1.303963      1.268011
  H       2.339926      0.152764     -0.492514
  H       1.488444     -0.656778      0.833428
  H       1.733059     -1.495612     -0.707683
13
Coordinates from ORCA-job data/geom_opt/68983/68983 E -460.783872007358
  C      -1.248978     -1.036586     -0.125772
  P      -0.067955      0.144225     -0.913621
  C      -0.282701      1.588478      0.216809
  C       1.519803     -0.526627     -0.251152
  H      -1.078196     -1.134925      0.961388
  H      -2.284697     -0.697148     -0.283997
  H      -1.148624     -2.033294     -0.583448
  H      -1.278093      2.037059      0.072032
  H       0.469696      2.360356     -0.009175
  H      -0.180815      1.305236      1.279888
  H       2.349560      0.154832     -0.496306
  H       1.491760     -0.659067      0.845388
  H       1.739239     -1.502538     -0.712037
13
Coordinates from ORCA-job data/geom_opt/68983/68983 E -460.784123934062
  C      -1.252524     -1.040106     -0.123278
  P      -0.068856      0.145897     -0.924098
  C      -0.283363      1.592775      0.220270
  C       1.524578     -0.528602     -0.249495
  H      -1.082221     -1.137807      0.965045
  H      -2.288860     -0.700596     -0.286078
  H      -1.151873     -2.036740     -0.584084
  H      -1.278904      2.042718      0.071197
  H       0.469424      2.365126     -0.008949
  H      -0.182184      1.309140      1.284365
  H       2.354240      0.153669     -0.498369
  H       1.496610     -0.661480      0.848003
  H       1.743932     -1.503994     -0.714529
13
Coordinates from ORCA-job data/geom_opt/68983/68983 E -460.784166365320
  C      -1.254593     -1.042169     -0.121563
  P      -0.069169      0.146398     -0.926860
  C      -0.283665      1.595243      0.222650
  C       1.527324     -0.529825     -0.248278
  H      -1.084869     -1.138678      0.965461
  H      -2.289753     -0.702404     -0.287609
  H      -1.152598     -2.037413     -0.583779
  H      -1.278484      2.044549      0.070883
  H       0.468862      2.366370     -0.008929
  H      -0.182794      1.311488      1.285211
  H       2.355290      0.152839     -0.499295
  H       1.499061     -0.662616      0.847739
  H       1.745388     -1.503783     -0.715631
13
Coordinates from ORCA-job data/geom_opt/68983/68983 E -460.784171731345
  C      -1.255186     -1.042787     -0.120954
  P      -0.069166      0.146369     -0.926477
  C      -0.283719      1.595950      0.223485
  C       1.528108     -0.530214     -0.247739
  H      -1.085193     -1.138564      0.965371
  H      -2.289524     -0.702355     -0.288202
  H      -1.152188     -2.037157     -0.583916
  H      -1.278390      2.044278      0.070642
  H       0.468805      2.366150     -0.009358
  H      -0.182675      1.311676      1.285153
  H       2.354917      0.152919     -0.499609
  H       1.499176     -0.662698      0.847582
  H       1.745033     -1.503567     -0.715979
13
Coordinates from ORCA-job data/geom_opt/68983/68983 E -460.784173205277
  C      -1.255341     -1.042980     -0.120683
  P      -0.069125      0.146279     -0.925833
  C      -0.283719      1.596137      0.223824
  C       1.528324     -0.530343     -0.247450
  H      -1.084780     -1.138242      0.965403
  H      -2.289209     -0.701838     -0.288440
  H      -1.151619     -2.036851     -0.584215
  H      -1.278485      2.043691      0.070354
  H       0.469010      2.365696     -0.009798
  H      -0.182480      1.311177      1.285089
  H       2.354393      0.153286     -0.499777
  H       1.498651     -0.662515      0.847695
  H       1.744378     -1.503497     -0.716169
