! RIJONX B3LYP def2-SVP D3BJ TIGHTSCF Opt
%pal
nprocs 6
end

* xyz 0 1
C     -1.245699   -1.033442   -0.126558
P     -0.066982    0.141767   -0.897138
C     -0.281949    1.584298    0.215145
C      1.515420   -0.524977   -0.252360
H     -1.078237   -1.129437    0.950370
H     -2.274989   -0.697080   -0.282251
H     -1.143197   -2.025279   -0.576637
H     -1.271052    2.029818    0.073701
H      0.467609    2.349995   -0.005515
H     -0.182354    1.303963    1.268011
H      2.339926    0.152764   -0.492514
H      1.488444   -0.656778    0.833428
H      1.733059   -1.495612   -0.707683
*