! RIJCOSX M062X def2-TZVP D3ZERO NormalSCF
%pal
nprocs 6
end

* xyz 0 1
  C          -1.25897397875734     -1.04603504610228     -0.12070875649392
  P          -0.06959626290546      0.14699174979208     -0.93002134543000
  C          -0.28435532506973      1.60069824466719      0.22482861689963
  C           1.53261412527309     -0.53193751015508     -0.24784305358946
  H          -1.08961779958016     -1.14364405025842      0.97320698480184
  H          -2.29959274909047     -0.70306548618536     -0.29170785495396
  H          -1.15456505379581     -2.04592776829049     -0.58876879550288
  H          -1.28549964526639      2.05148895737085      0.06899226161401
  H           0.47259849998754      2.37561984404034     -0.01239597320644
  H          -0.18239726835033      1.31651362349096      1.29426149911230
  H           2.36385717501035      0.15619611735702     -0.50333818412407
  H           1.50519392161601     -0.66613862748115      0.85489627448290
  H           1.75033336092870     -1.51076004824565     -0.72140267360994
*