! RIJCOSX M062X def2-TZVP D3ZERO NormalSCF
%pal
nprocs 6
end

* xyz 0 1
  C           7.42256544752160      1.39803270116329      0.15690523956691
  C           5.97528253489045      0.92891996249311     -0.01828995451636
  C           5.05394740390507      1.37098267253520      1.12794558265034
  C           3.57676909688416      0.99981007390842      0.93276648611996
  C           3.30982984989518     -0.51060748797941      0.87651283785055
  C           1.82190101316571     -0.89218137273655      0.82139690931034
  P           1.01740482187750     -0.28439461877318     -0.73609400277434
  O           1.99001194549206     -0.18423388022166     -1.90137026755903
  C          -0.38113405248004     -1.44654201840132     -1.08515488463600
  C          -1.13261245147637     -2.09568213072274      0.08529511186666
  C          -2.28806393617448     -2.99211376234738     -0.37946707131589
  C          -3.03408178481734     -3.67249319639550      0.77544113489690
  C          -4.17460371270665     -4.60693637249144      0.33901019449209
  C          -5.33679253054419     -3.90146815643914     -0.37031730754500
  C           0.23055805697775      1.34492609254411     -0.36233988947037
  C          -0.83536437925280      1.41913383377098      0.73634801178396
  C          -1.37667916502989      2.84137334712303      0.97128414693108
  C          -2.01117061683641      3.50842483181255     -0.26010660071887
  C          -3.16141570312573      2.71532246241024     -0.89554316080243
  C          -3.83219062440541      3.45218219102490     -2.05871773816816
  H           7.86446338921240      1.00302001395509      1.09642571362182
  H           8.06750365813394      1.06378047619695     -0.68120795262385
  H           7.48556437793381      2.50598822299647      0.20582449317027
  H           5.95550154058444     -0.17888133981523     -0.10876276694141
  H           5.56482720636513      1.31115791267846     -0.97941015602857
  H           5.13392501656515      2.47472709874865      1.24735912685742
  H           5.42434152635191      0.93824104302744      2.08633614074139
  H           2.97256434289422      1.45087747616611      1.75214619711033
  H           3.21782692858400      1.45124418855576     -0.01789536692627
  H           3.79864525474576     -0.93354412491711     -0.02527278999967
  H           3.77261863191295     -1.00480378806934      1.75988972535332
  H           1.71609260542565     -1.99736624919450      0.82530066585136
  H           1.26194740893228     -0.51589390295149      1.70546023841891
  H           0.08699022436039     -2.22315842851643     -1.72860910904625
  H          -1.08132990745476     -0.88958928352342     -1.74647388030277
  H          -0.42627020492617     -2.69926884339350      0.69579389460489
  H          -1.53135711337195     -1.31832668325177      0.77145372534964
  H          -1.89356369269475     -3.76818779432401     -1.07434400855476
  H          -2.99569146829871     -2.38112101669196     -0.98217294867228
  H          -3.44094475013459     -2.89084557067068      1.45786708736113
  H          -2.30275608694819     -4.25079012596375      1.38292527132715
  H          -3.76076012753190     -5.40049312318374     -0.32339435748649
  H          -4.56279205420818     -5.13730198820793      1.23564571790872
  H          -5.01984333876358     -3.43142973457475     -1.32408277896070
  H          -6.15385590860242     -4.61138246085197     -0.61177041722950
  H          -5.76801642315558     -3.10009341408860      0.26681751920844
  H           1.06980420517100      2.03943218282036     -0.14537444570508
  H          -0.17641312830079      1.66159181979597     -1.34698081001902
  H          -0.41726568046622      1.03560828348641      1.69207908231575
  H          -1.68138803788371      0.74462746910901      0.48630596117602
  H          -2.12843299191198      2.79965244487953      1.79068471909971
  H          -0.55116084470305      3.48582902557640      1.34655356835693
  H          -1.23091678122738      3.69929215658240     -1.03110038582778
  H          -2.38327834218887      4.51472048903027      0.03408492680158
  H          -3.91741226488793      2.47665644703739     -0.11324779063796
  H          -2.78388805500695      1.73236888819430     -1.25545582092163
  H          -3.10364454907058      3.67315303215171     -2.86700601374431
  H          -4.65481252800773      2.85648030552921     -2.50395138077835
  H          -4.26098125118720      4.42157472339475     -1.72794537219047
*