46
Coordinates from ORCA-job data/geom_opt/78464/78464 E -1378.436467230166
  C       2.442481      3.180893     -1.635095
  O       1.557055      2.154285     -1.213575
  C       0.806567      2.371780     -0.081978
  C       0.854881      3.562342      0.658695
  C       0.070391      3.724002      1.801085
  C      -0.768982      2.699114      2.216160
  C      -0.827244      1.509521      1.488309
  C      -0.049308      1.318509      0.329523
  P      -0.112127     -0.249858     -0.638304
  C      -1.605901     -1.133178     -0.034227
  C      -1.507365     -2.370806      0.629951
  C      -2.641474     -3.051564      1.078229
  C      -3.903473     -2.517868      0.857199
  C      -4.036446     -1.307795      0.177285
  C      -2.905041     -0.613885     -0.277682
  O      -2.977195      0.569899     -0.972689
  C      -4.253745      1.161120     -1.161879
  C       1.315596     -1.170475      0.045468
  C       1.681710     -1.090541      1.401727
  C       2.766668     -1.815144      1.908047
  C       3.507445     -2.643298      1.070777
  C       3.169505     -2.740528     -0.275592
  C       2.098802     -1.996200     -0.785597
  O       1.791253     -2.157461     -2.116039
  C       2.629403     -1.322876     -2.916718
  H       2.958692      2.828000     -2.533183
  H       1.894468      4.089863     -1.903695
  H       3.203365      3.384493     -0.874550
  H       1.495370      4.388785      0.370563
  H       0.116426      4.651827      2.365132
  H      -1.381370      2.819828      3.105784
  H      -1.489850      0.728733      1.851602
  H      -0.543495     -2.841583      0.803609
  H      -2.532415     -4.004167      1.590257
  H      -4.787048     -3.049540      1.200297
  H      -5.041133     -0.935863      0.008104
  H      -4.108264      2.107356     -1.691937
  H      -4.893248      0.527316     -1.784669
  H      -4.731430      1.388521     -0.203204
  H       1.118567     -0.470327      2.093962
  H       3.023851     -1.735195      2.961235
  H       4.341790     -3.215709      1.466452
  H       3.733231     -3.398489     -0.930631
  H       3.657522     -1.700234     -2.926220
  H       2.249205     -1.353042     -3.942186
  H       2.612312     -0.280562     -2.579799
46
Coordinates from ORCA-job data/geom_opt/78464/78464 E -1378.444426187233
  C       2.559540      3.059162     -1.525117
  O       1.624044      2.070819     -1.144736
  C       0.809645      2.320153     -0.078013
  C       0.839610      3.511678      0.658833
  C      -0.015971      3.687728      1.751031
  C      -0.901733      2.675247      2.114832
  C      -0.928113      1.484731      1.381537
  C      -0.085265      1.286646      0.277884
  P      -0.112564     -0.253487     -0.729396
  C      -1.565485     -1.142899     -0.052622
  C      -1.448408     -2.379083      0.601185
  C      -2.574643     -3.070904      1.059350
  C      -3.843696     -2.527897      0.868365
  C      -3.988222     -1.302445      0.209642
  C      -2.860597     -0.615612     -0.257644
  O      -2.915680      0.578620     -0.912940
  C      -4.169180      1.209625     -1.072047
  C       1.298286     -1.156725      0.019685
  C       1.653590     -1.027348      1.374872
  C       2.749332     -1.711426      1.907785
  C       3.513189     -2.548601      1.090595
  C       3.179036     -2.692951     -0.256778
  C       2.085585     -1.996526     -0.787509
  O       1.761634     -2.184162     -2.112123
  C       2.481519     -1.312063     -2.980093
  H       3.116397      2.659716     -2.384067
  H       2.056717      3.988105     -1.842713
  H       3.278365      3.266498     -0.714518
  H       1.522217      4.321740      0.403277
  H       0.014742      4.620838      2.318269
  H      -1.571528      2.806041      2.968117
  H      -1.627170      0.703211      1.686180
  H      -0.468431     -2.834200      0.754111
  H      -2.454397     -4.032243      1.564052
  H      -4.728350     -3.058827      1.227323
  H      -4.993841     -0.907600      0.067708
  H      -3.984334      2.165339     -1.581455
  H      -4.845169      0.607600     -1.702511
  H      -4.638272      1.423316     -0.096892
  H       1.071761     -0.382278      2.036459
  H       3.003418     -1.591114      2.963661
  H       4.365049     -3.093795      1.504473
  H       3.756790     -3.357447     -0.901964
  H       3.551583     -1.582844     -3.015829
  H       2.058718     -1.424807     -3.989093
  H       2.370285     -0.259533     -2.671162
46
Coordinates from ORCA-job data/geom_opt/78464/78464 E -1378.446901390827
  C       2.678045      2.918040     -1.413252
  O       1.680615      1.998691     -1.036271
  C       0.850453      2.299692     -0.002906
  C       0.916694      3.492485      0.728330
  C       0.037993      3.703886      1.797597
  C      -0.897945      2.727337      2.142838
  C      -0.954549      1.537897      1.405903
  C      -0.098311      1.307990      0.324320
  P      -0.136483     -0.205753     -0.732533
  C      -1.555631     -1.124640     -0.010857
  C      -1.414514     -2.330245      0.685847
  C      -2.530730     -3.050944      1.129139
  C      -3.812529     -2.560949      0.874111
  C      -3.981990     -1.363404      0.167031
  C      -2.860871     -0.658068     -0.284155
  O      -2.920425      0.500565     -0.986066
  C      -4.168790      1.100668     -1.234040
  C       1.282717     -1.111898      0.023784
  C       1.666100     -0.970166      1.368491
  C       2.775418     -1.645604      1.879688
  C       3.526679     -2.482412      1.044229
  C       3.160933     -2.637013     -0.294934
  C       2.043681     -1.959333     -0.798526
  O       1.669136     -2.147192     -2.107151
  C       2.246956     -1.229869     -3.024796
  H       3.222705      2.459395     -2.251347
  H       2.242503      3.876236     -1.753472
  H       3.389217      3.109731     -0.588056
  H       1.646863      4.264922      0.482500
  H       0.097077      4.637629      2.364782
  H      -1.580046      2.884017      2.983589
  H      -1.682624      0.774079      1.686518
  H      -0.416343     -2.721802      0.891833
  H      -2.392709     -3.988389      1.675127
  H      -4.692923     -3.109773      1.221310
  H      -4.992071     -1.000523     -0.029729
  H      -3.961713      2.034706     -1.775734
  H      -4.813768      0.458304     -1.862842
  H      -4.696347      1.343103     -0.292537
  H       1.089799     -0.315976      2.027848
  H       3.054492     -1.517802      2.929748
  H       4.395656     -3.018781      1.437880
  H       3.724563     -3.296477     -0.960595
  H       3.340615     -1.383884     -3.111487
  H       1.779252     -1.410369     -4.004448
  H       2.043152     -0.188105     -2.716703
46
Coordinates from ORCA-job data/geom_opt/78464/78464 E -1378.446696470480
  C       2.924481      2.689436     -1.106211
  O       1.815873      1.863881     -0.845238
  C       0.870551      2.257476      0.048527
  C       0.918953      3.467883      0.751542
  C      -0.085227      3.769750      1.679416
  C      -1.125788      2.869959      1.912158
  C      -1.163170      1.662424      1.203176
  C      -0.181965      1.338869      0.262826
  P      -0.163715     -0.190329     -0.782934
  C      -1.542467     -1.165382     -0.036374
  C      -1.379861     -2.405243      0.590298
  C      -2.482490     -3.150425      1.028623
  C      -3.770329     -2.648481      0.843201
  C      -3.965600     -1.410737      0.216783
  C      -2.858533     -0.680716     -0.230098
  O      -2.939714      0.524736     -0.845068
  C      -4.189051      1.148263     -1.012550
  C       1.306688     -1.030194     -0.023035
  C       1.742093     -0.806147      1.292918
  C       2.873942     -1.447825      1.797905
  C       3.595100     -2.330821      0.984235
  C       3.178970     -2.566508     -0.326958
  C       2.038769     -1.924926     -0.825034
  O       1.612605     -2.198049     -2.099534
  C       2.100762     -1.325169     -3.104988
  H       3.539034      2.157086     -1.844717
  H       2.619929      3.665524     -1.526032
  H       3.526001      2.866866     -0.196289
  H       1.730501      4.177149      0.588908
  H      -0.040459      4.715996      2.224777
  H      -1.904187      3.099507      2.643423
  H      -1.971317      0.953613      1.390905
  H      -0.373732     -2.796702      0.742961
  H      -2.328437     -4.115598      1.516245
  H      -4.639100     -3.215380      1.187434
  H      -4.977761     -1.029502      0.079431
  H      -3.989860      2.113978     -1.495865
  H      -4.863058      0.553312     -1.655830
  H      -4.688558      1.324841     -0.042495
  H       1.181875     -0.117882      1.929117
  H       3.192842     -1.260206      2.826112
  H       4.481871     -2.838493      1.372461
  H       3.717957     -3.257824     -0.979079
  H       3.197065     -1.421325     -3.221871
  H       1.608614     -1.610328     -4.044945
  H       1.849902     -0.276359     -2.868235
46
Coordinates from ORCA-job data/geom_opt/78464/78464 E -1378.447644050602
  C       2.918065      2.754141     -1.087389
  O       1.813081      1.927727     -0.811303
  C       0.904319      2.301503      0.128862
  C       0.985308      3.495095      0.856723
  C       0.015406      3.782502      1.824504
  C      -1.022806      2.885235      2.071880
  C      -1.093197      1.692952      1.340425
  C      -0.145118      1.381680      0.362115
  P      -0.174621     -0.121840     -0.721090
  C      -1.553684     -1.100576      0.023105
  C      -1.375762     -2.277506      0.758357
  C      -2.469037     -3.040364      1.188348
  C      -3.763162     -2.621970      0.884266
  C      -3.974664     -1.450975      0.145845
  C      -2.876325     -0.702025     -0.292151
  O      -2.978314      0.438534     -1.021099
  C      -4.246050      0.968413     -1.324598
  C       1.302637     -1.004311     -0.022369
  C       1.785098     -0.806759      1.281073
  C       2.909588     -1.490969      1.746443
  C       3.572473     -2.393715      0.907334
  C       3.108590     -2.605675     -0.391547
  C       1.979611     -1.918030     -0.853019
  O       1.512681     -2.171223     -2.117571
  C       2.014907     -1.316770     -3.133797
  H       3.502652      2.242049     -1.863353
  H       2.606027      3.744769     -1.465087
  H       3.552584      2.899215     -0.194621
  H       1.794835      4.203390      0.679821
  H       0.084306      4.716651      2.387788
  H      -1.774006      3.104028      2.834131
  H      -1.897213      0.983776      1.544250
  H      -0.364279     -2.603487      1.004487
  H      -2.302963     -3.954739      1.762254
  H      -4.625084     -3.204162      1.220057
  H      -4.992106     -1.136275     -0.087026
  H      -4.069216      1.896592     -1.883898
  H      -4.841646      0.277611     -1.948656
  H      -4.818987      1.201427     -0.408734
  H       1.266500     -0.106772      1.939623
  H       3.265407     -1.323847      2.766041
  H       4.451184     -2.935955      1.265928
  H       3.602571     -3.310663     -1.064008
  H       3.104897     -1.451628     -3.266606
  H       1.500061     -1.588222     -4.065751
  H       1.805456     -0.258832     -2.899987
46
Coordinates from ORCA-job data/geom_opt/78464/78464 E -1378.447663483660
  C       2.761085      2.893698     -1.285326
  O       1.722517      2.006222     -0.946937
  C       0.860915      2.324333      0.055832
  C       0.915286      3.522259      0.778790
  C      -0.011906      3.756825      1.801355
  C      -0.981419      2.802726      2.106764
  C      -1.023894      1.604920      1.382417
  C      -0.114244      1.343859      0.354185
  P      -0.130314     -0.161272     -0.723150
  C      -1.533219     -1.123048     -0.005520
  C      -1.383371     -2.326070      0.692530
  C      -2.494887     -3.065079      1.116268
  C      -3.778628     -2.596267      0.843149
  C      -3.961112     -1.396156      0.145056
  C      -2.844865     -0.668619     -0.284450
  O      -2.919538      0.504094     -0.965007
  C      -4.175379      1.082253     -1.228734
  C       1.314592     -1.063586      0.011964
  C       1.753143     -0.889100      1.333936
  C       2.857693     -1.587309      1.826695
  C       3.542549     -2.482371      0.997725
  C       3.120592     -2.672071     -0.319146
  C       2.012511     -1.969249     -0.807903
  O       1.590506     -2.196085     -2.093299
  C       2.139234     -1.322469     -3.068668
  H       3.320965      2.420622     -2.103330
  H       2.371875      3.868360     -1.631745
  H       3.444187      3.064635     -0.433888
  H       1.668903      4.277057      0.553633
  H       0.034714      4.695362      2.359926
  H      -1.700253      2.981324      2.909990
  H      -1.771956      0.850972      1.633918
  H      -0.379513     -2.693688      0.912066
  H      -2.351198     -4.001906      1.659632
  H      -4.654506     -3.161224      1.172746
  H      -4.971045     -1.041088     -0.060900
  H      -3.979692      2.026469     -1.754162
  H      -4.798646      0.434200     -1.871372
  H      -4.728210      1.296372     -0.296022
  H       1.217446     -0.195007      1.985400
  H       3.180510     -1.436902      2.860039
  H       4.404702     -3.036628      1.378167
  H       3.631717     -3.371481     -0.984778
  H       3.233629     -1.458630     -3.155654
  H       1.666389     -1.573057     -4.028646
  H       1.922136     -0.268205     -2.823543
46
Coordinates from ORCA-job data/geom_opt/78464/78464 E -1378.447805382813
  C       2.858695      2.808799     -1.171876
  O       1.775283      1.958972     -0.880489
  C       0.881443      2.308998      0.082759
  C       0.944850      3.505744      0.806888
  C      -0.014270      3.770625      1.792042
  C      -1.023134      2.847009      2.060733
  C      -1.074426      1.649646      1.336208
  C      -0.136290      1.361020      0.341634
  P      -0.154070     -0.145678     -0.732932
  C      -1.541440     -1.116357      0.004195
  C      -1.373696     -2.305102      0.722262
  C      -2.474183     -3.051698      1.161154
  C      -3.764646     -2.605506      0.882608
  C      -3.965147     -1.420446      0.164199
  C      -2.859754     -0.684876     -0.279826
  O      -2.951945      0.474853     -0.980356
  C      -4.216353      1.028822     -1.254793
  C       1.305904     -1.036781     -0.013516
  C       1.761789     -0.853744      1.301258
  C       2.874657     -1.546905      1.782693
  C       3.550839     -2.444148      0.949248
  C       3.113020     -2.640342     -0.361524
  C       1.997178     -1.942273     -0.839258
  O       1.561057     -2.175000     -2.118709
  C       2.091727     -1.298707     -3.101546
  H       3.439132      2.314266     -1.962266
  H       2.520305      3.795314     -1.537273
  H       3.507055      2.958915     -0.289938
  H       1.731596      4.234762      0.612600
  H       0.040077      4.707685      2.352237
  H      -1.766326      3.048928      2.835685
  H      -1.854020      0.918802      1.558635
  H      -0.364291     -2.654775      0.945096
  H      -2.316755     -3.976923      1.720207
  H      -4.631959     -3.177088      1.223022
  H      -4.980013     -1.083019     -0.046576
  H      -4.035148      1.965828     -1.797829
  H      -4.829687      0.359408     -1.884799
  H      -4.772654      1.251806     -0.326372
  H       1.232208     -0.157925      1.955790
  H       3.210839     -1.390718      2.810812
  H       4.419189     -2.994369      1.321056
  H       3.617344     -3.340709     -1.031204
  H       3.186860     -1.422175     -3.196075
  H       1.614836     -1.558922     -4.056826
  H       1.864330     -0.246015     -2.859036
46
Coordinates from ORCA-job data/geom_opt/78464/78464 E -1378.447823154669
  C       2.890281      2.778249     -1.128362
  O       1.788485      1.945713     -0.856974
  C       0.885825      2.306746      0.093901
  C       0.951220      3.503568      0.817436
  C      -0.018556      3.778355      1.789512
  C      -1.039463      2.864589      2.045583
  C      -1.092682      1.666693      1.321897
  C      -0.143943      1.368436      0.340365
  P      -0.159901     -0.137338     -0.735026
  C      -1.541248     -1.115114      0.006290
  C      -1.368389     -2.303189      0.724305
  C      -2.465799     -3.053665      1.164282
  C      -3.758142     -2.612551      0.886489
  C      -3.963879     -1.428860      0.167469
  C      -2.861411     -0.689326     -0.277573
  O      -2.958281      0.469998     -0.978192
  C      -4.225026      1.015892     -1.257654
  C       1.306536     -1.023200     -0.021654
  C       1.772924     -0.830575      1.287904
  C       2.888071     -1.522443      1.766001
  C       3.555641     -2.427825      0.934494
  C       3.107715     -2.632803     -0.371587
  C       1.990170     -1.935487     -0.846494
  O       1.545369     -2.176892     -2.121462
  C       2.065113     -1.303167     -3.112474
  H       3.476978      2.274762     -1.908414
  H       2.574662      3.770391     -1.499025
  H       3.524583      2.917680     -0.234522
  H       1.747988      4.224187      0.632681
  H       0.037111      4.715438      2.349536
  H      -1.790815      3.074481      2.810496
  H      -1.880665      0.942475      1.535333
  H      -0.357388     -2.648641      0.945497
  H      -2.304640     -3.977994      1.723773
  H      -4.623023     -3.187434      1.227567
  H      -4.979968     -1.095289     -0.043558
  H      -4.047748      1.952329     -1.802953
  H      -4.832956      0.340980     -1.887067
  H      -4.785330      1.238229     -0.331432
  H       1.248890     -0.128550      1.940422
  H       3.232751     -1.359065      2.790202
  H       4.425305     -2.977444      1.304091
  H       3.605013     -3.338992     -1.040421
  H       3.161540     -1.415257     -3.206798
  H       1.590382     -1.577183     -4.064979
  H       1.826703     -0.250910     -2.878900
46
Coordinates from ORCA-job data/geom_opt/78464/78464 E -1378.447829174169
  C       2.889998      2.778006     -1.130255
  O       1.785549      1.947822     -0.862205
  C       0.884314      2.308271      0.090257
  C       0.949290      3.505550      0.812914
  C      -0.019844      3.780012      1.785775
  C      -1.039462      2.865315      2.043466
  C      -1.092225      1.666671      1.320950
  C      -0.144025      1.368792      0.338718
  P      -0.159934     -0.137611     -0.735076
  C      -1.540748     -1.115372      0.007449
  C      -1.367470     -2.303990      0.724470
  C      -2.464696     -3.054169      1.165233
  C      -3.757229     -2.612278      0.889305
  C      -3.963275     -1.427995      0.171419
  C      -2.860940     -0.688620     -0.274379
  O      -2.958022      0.471413     -0.973994
  C      -4.225104      1.015712     -1.255203
  C       1.306208     -1.024073     -0.022369
  C       1.770160     -0.834847      1.288570
  C       2.883929     -1.528619      1.767174
  C       3.552153     -2.432944      0.935096
  C       3.106413     -2.634720     -0.372267
  C       1.990641     -1.935045     -0.847937
  O       1.548659     -2.173785     -2.124579
  C       2.070640     -1.296647     -3.111627
  H       3.477539      2.273858     -1.909263
  H       2.577715      3.771119     -1.501118
  H       3.522283      2.914966     -0.234597
  H       1.745171      4.226801      0.626685
  H       0.035254      4.717529      2.345133
  H      -1.790369      3.075151      2.808873
  H      -1.879100      0.941704      1.535933
  H      -0.356284     -2.650087      0.943968
  H      -2.303395     -3.978896      1.724049
  H      -4.621908     -3.187036      1.231130
  H      -4.979468     -1.093883     -0.038249
  H      -4.048407      1.951519     -1.801797
  H      -4.831769      0.339242     -1.884143
  H      -4.786231      1.239099     -0.329734
  H       1.245058     -0.134228      1.941661
  H       3.226929     -1.367753      2.792352
  H       4.420407     -2.984394      1.305316
  H       3.603944     -3.340070     -1.041822
  H       3.168120     -1.403866     -3.199039
  H       1.603364     -1.571999     -4.067458
  H       1.826169     -0.245633     -2.878783
46
Coordinates from ORCA-job data/geom_opt/78464/78464 E -1378.447834040946
  C       2.890002      2.776563     -1.132456
  O       1.780109      1.951662     -0.870386
  C       0.882603      2.310404      0.086282
  C       0.948297      3.507775      0.808547
  C      -0.018169      3.780958      1.784498
  C      -1.035623      2.864806      2.045412
  C      -1.089127      1.665807      1.323486
  C      -0.143478      1.369223      0.338326
  P      -0.160389     -0.137264     -0.734450
  C      -1.540770     -1.115273      0.009053
  C      -1.367311     -2.304721      0.724697
  C      -2.464505     -3.055022      1.165133
  C      -3.757166     -2.612519      0.890401
  C      -3.963323     -1.427435      0.173945
  C      -2.860963     -0.687904     -0.271639
  O      -2.958061      0.473157     -0.969672
  C      -4.225465      1.013703     -1.256732
  C       1.305557     -1.024293     -0.022742
  C       1.768372     -0.836426      1.288870
  C       2.880915     -1.531639      1.768139
  C       3.549174     -2.436016      0.936095
  C       3.104845     -2.635967     -0.372028
  C       1.990376     -1.934675     -0.848467
  O       1.550998     -2.172005     -2.126471
  C       2.071936     -1.289872     -3.109873
  H       3.478311      2.270673     -1.909777
  H       2.584614      3.771770     -1.503455
  H       3.518912      2.908559     -0.233705
  H       1.742497      4.230116      0.619259
  H       0.037144      4.718611      2.343623
  H      -1.784411      3.073863      2.813137
  H      -1.874079      0.939702      1.541449
  H      -0.356054     -2.651329      0.943006
  H      -2.303312     -3.980402      1.722911
  H      -4.621696     -3.187442      1.232323
  H      -4.979558     -1.092776     -0.034692
  H      -4.049135      1.948046     -1.805973
  H      -4.828419      0.333670     -1.885361
  H      -4.789950      1.239299     -0.333831
  H       1.242957     -0.135809      1.941708
  H       3.223154     -1.371837      2.793755
  H       4.416356     -2.988735      1.306959
  H       3.602202     -3.340950     -1.042089
  H       3.171090     -1.386173     -3.188204
  H       1.615489     -1.570613     -4.069377
  H       1.815059     -0.241270     -2.879629
46
Coordinates from ORCA-job data/geom_opt/78464/78464 E -1378.447835476592
  C       2.892794      2.768833     -1.133199
  O       1.778647      1.948668     -0.874261
  C       0.882512      2.308815      0.083191
  C       0.950217      3.506497      0.804741
  C      -0.014944      3.781213      1.781545
  C      -1.033199      2.866321      2.043848
  C      -1.088764      1.667061      1.322503
  C      -0.144284      1.368872      0.336712
  P      -0.163178     -0.138484     -0.734674
  C      -1.542915     -1.115515      0.011200
  C      -1.368685     -2.303997      0.728272
  C      -2.465399     -3.054060      1.170299
  C      -3.758370     -2.612232      0.895839
  C      -3.965294     -1.428032      0.178116
  C      -2.863417     -0.688783     -0.269072
  O      -2.961241      0.471490     -0.968233
  C      -4.229019      1.009448     -1.258473
  C       1.303423     -1.024991     -0.023739
  C       1.762827     -0.841385      1.289755
  C       2.875506     -1.536301      1.769010
  C       3.547432     -2.436273      0.935066
  C       3.106589     -2.631973     -0.374834
  C       1.991964     -1.930872     -0.851292
  O       1.556616     -2.163983     -2.131456
  C       2.077870     -1.276404     -3.109855
  H       3.481497      2.260023     -1.908333
  H       2.592759      3.765027     -1.505963
  H       3.519240      2.898775     -0.232457
  H       1.744873      4.227972      0.614101
  H       0.041876      4.719086      2.340144
  H      -1.780984      3.076580      2.812227
  H      -1.874429      0.942033      1.541557
  H      -0.357199     -2.650070      0.946471
  H      -2.303651     -3.978771      1.729040
  H      -4.622493     -3.186975      1.239097
  H      -4.981775     -1.093794     -0.030009
  H      -4.053227      1.942152     -1.810679
  H      -4.830374      0.326495     -1.885459
  H      -4.794771      1.237559     -0.336953
  H       1.234446     -0.144400      1.944085
  H       3.214946     -1.379904      2.796081
  H       4.414756     -2.988805      1.305890
  H       3.606872     -3.333280     -1.046577
  H       3.177743     -1.367825     -3.183852
  H       1.626700     -1.556133     -4.072157
  H       1.815511     -0.229678     -2.877259
46
Coordinates from ORCA-job data/geom_opt/78464/78464 E -1378.447837349613
  C       2.896575      2.750713     -1.140179
  O       1.775040      1.939415     -0.884975
  C       0.882522      2.302578      0.074895
  C       0.955096      3.501134      0.794509
  C      -0.006637      3.779588      1.773565
  C      -1.026546      2.867620      2.039821
  C      -1.087091      1.667659      1.320059
  C      -0.145932      1.365649      0.332275
  P      -0.169495     -0.144187     -0.735643
  C      -1.548663     -1.117869      0.015279
  C      -1.374067     -2.305445      0.733868
  C      -2.470521     -3.053922      1.179299
  C      -3.763659     -2.611431      0.906749
  C      -3.971020     -1.428235      0.187448
  C      -2.869476     -0.690636     -0.263143
  O      -2.967744      0.468403     -0.964118
  C      -4.235717      1.003316     -1.259093
  C       1.298344     -1.028641     -0.024632
  C       1.748723     -0.853826      1.293316
  C       2.862651     -1.545952      1.773434
  C       3.545638     -2.434010      0.935546
  C       3.114447     -2.620395     -0.378801
  C       1.998059     -1.922374     -0.855953
  O       1.573341     -2.145903     -2.141256
  C       2.092876     -1.243681     -3.107095
  H       3.484710      2.236152     -1.911984
  H       2.605796      3.748513     -1.516050
  H       3.519882      2.877388     -0.236857
  H       1.750604      4.220691      0.600264
  H       0.053963      4.718078      2.330690
  H      -1.771628      3.080695      2.810035
  H      -1.874238      0.945110      1.542122
  H      -0.362531     -2.652279      0.950611
  H      -2.308451     -3.978026      1.738955
  H      -4.627518     -3.184958      1.252684
  H      -4.987689     -1.093464     -0.018870
  H      -4.060080      1.932986     -1.816454
  H      -4.835477      0.316052     -1.882864
  H      -4.802903      1.236301     -0.339657
  H       1.212123     -0.165808      1.950507
  H       3.194609     -1.396702      2.804006
  H       4.414288     -2.984163      1.306795
  H       3.623759     -3.311874     -1.053937
  H       3.194148     -1.323394     -3.173611
  H       1.651808     -1.518837     -4.075374
  H       1.818083     -0.202028     -2.866182
46
Coordinates from ORCA-job data/geom_opt/78464/78464 E -1378.447838114983
  C       2.897983      2.740445     -1.145182
  O       1.773532      1.932983     -0.890678
  C       0.882552      2.298093      0.069991
  C       0.957951      3.497084      0.788608
  C      -0.002226      3.777949      1.768479
  C      -1.023498      2.867986      2.036479
  C      -1.086819      1.667621      1.317637
  C      -0.147172      1.363134      0.329197
  P      -0.173028     -0.148240     -0.736893
  C      -1.551914     -1.120045      0.016729
  C      -1.377478     -2.307786      0.735112
  C      -2.473997     -3.055233      1.182197
  C      -3.767082     -2.611509      0.911538
  C      -3.974345     -1.428227      0.192331
  C      -2.872783     -0.691775     -0.260016
  O      -2.970980      0.467129     -0.961160
  C      -4.238859      1.002170     -1.256306
  C       1.295803     -1.030766     -0.025099
  C       1.740643     -0.860007      1.295309
  C       2.855511     -1.549693      1.776603
  C       3.545341     -2.431067      0.937220
  C       3.119996     -2.613185     -0.379574
  C       2.002397     -1.917779     -0.857879
  O       1.584065     -2.136889     -2.145879
  C       2.101719     -1.226528     -3.105038
  H       3.485183      2.223410     -1.916048
  H       2.610866      3.738957     -1.521981
  H       3.520717      2.865754     -0.241300
  H       1.754369      4.215234      0.592841
  H       0.060621      4.716772      2.324800
  H      -1.767383      3.082880      2.807327
  H      -1.875023      0.946637      1.541022
  H      -0.366024     -2.655744      0.950355
  H      -2.311950     -3.979473      1.741624
  H      -4.630999     -3.184140      1.258810
  H      -4.991000     -1.092497     -0.012487
  H      -4.063043      1.930956     -1.815062
  H      -4.839237      0.314247     -1.878742
  H      -4.805555      1.236680     -0.336954
  H       1.198975     -0.176909      1.953503
  H       3.182933     -1.403721      2.809074
  H       4.414940     -2.979210      1.309214
  H       3.634985     -3.299256     -1.055922
  H       3.203536     -1.300762     -3.169345
  H       1.664256     -1.498020     -4.075977
  H       1.821525     -0.187665     -2.858473
46
Coordinates from ORCA-job data/geom_opt/78464/78464 E -1378.447830462877
  C       2.903874      2.700759     -1.164474
  O       1.767759      1.908792     -0.913147
  C       0.882673      2.282190      0.050005
  C       0.967506      3.483825      0.763167
  C       0.012717      3.774276      1.745467
  C      -1.012807      2.871315      2.021046
  C      -1.085623      1.668397      1.307425
  C      -0.151256      1.354221      0.317032
  P      -0.185875     -0.163388     -0.740390
  C      -1.563579     -1.127774      0.024233
  C      -1.389062     -2.314166      0.744849
  C      -2.485463     -3.056895      1.200181
  C      -3.778600     -2.609681      0.935606
  C      -3.985990     -1.427902      0.213896
  C      -2.884647     -0.696458     -0.246843
  O      -2.983039      0.460356     -0.951144
  C      -4.250913      0.993883     -1.248972
  C       1.285373     -1.041077     -0.027058
  C       1.707830     -0.891832      1.303484
  C       2.825065     -1.575316      1.787721
  C       3.541102     -2.427968      0.940498
  C       3.139289     -2.587518     -0.386423
  C       2.018323     -1.899114     -0.867532
  O       1.625653     -2.095152     -2.166985
  C       2.138730     -1.150656     -3.095085
  H       3.488414      2.173161     -1.930242
  H       2.631766      3.701392     -1.546842
  H       3.523133      2.821617     -0.257660
  H       1.766805      4.196983      0.560851
  H       0.082933      4.715100      2.297515
  H      -1.752485      3.093613      2.793802
  H      -1.877170      0.953033      1.536801
  H      -0.377677     -2.665152      0.955461
  H      -2.323240     -3.980184      1.761178
  H      -4.642394     -3.178444      1.289544
  H      -5.002730     -1.089422      0.014089
  H      -4.075087      1.917729     -1.815835
  H      -4.852687      0.301094     -1.864580
  H      -4.816122      1.236783     -0.330869
  H       1.146314     -0.230489      1.967346
  H       3.134232     -1.446763      2.828082
  H       4.413257     -2.970785      1.314270
  H       3.675709     -3.250200     -1.069389
  H       3.242812     -1.200234     -3.143139
  H       1.722703     -1.407519     -4.079314
  H       1.832474     -0.124428     -2.827626
46
Coordinates from ORCA-job data/geom_opt/78464/78464 E -1378.447839117727
  C       2.898726      2.727187     -1.154094
  O       1.771228      1.924069     -0.899533
  C       0.882341      2.291771      0.062134
  C       0.961034      3.491572      0.779075
  C       0.002717      3.775626      1.759851
  C      -1.019966      2.868023      2.030412
  C      -1.086581      1.666820      1.313297
  C      -0.148843      1.359133      0.324043
  P      -0.177461     -0.154565     -0.739106
  C      -1.555982     -1.123743      0.018373
  C      -1.381947     -2.311761      0.736346
  C      -2.478700     -3.057030      1.186573
  C      -3.771654     -2.610799      0.919424
  C      -3.978512     -1.427371      0.200318
  C      -2.876743     -0.693253     -0.255261
  O      -2.974607      0.465310     -0.956928
  C      -4.242247      1.001763     -1.250449
  C       1.292344     -1.034787     -0.025968
  C       1.728022     -0.871031      1.298444
  C       2.843635     -1.557878      1.781940
  C       3.543940     -2.428923      0.940458
  C       3.128203     -2.603653     -0.380351
  C       2.009422     -1.911509     -0.860895
  O       1.601425     -2.123774     -2.153197
  C       2.116419     -1.200689     -3.101538
  H       3.484236      2.207475     -1.924466
  H       2.615524      3.726563     -1.531570
  H       3.521606      2.850718     -0.250069
  H       1.758552      4.207953      0.581215
  H       0.068174      4.715079      2.314819
  H      -1.762393      3.085395      2.801949
  H      -1.875778      0.947641      1.538776
  H      -0.370632     -2.661758      0.948913
  H      -2.316879     -3.981470      1.745773
  H      -4.635773     -3.181576      1.269285
  H      -4.995052     -1.089733     -0.001907
  H      -4.066162      1.929318     -1.811133
  H      -4.844928      0.313667     -1.870444
  H      -4.806782      1.238685     -0.330388
  H       1.178339     -0.195697      1.958047
  H       3.163600     -1.417604      2.817527
  H       4.414409     -2.974659      1.313922
  H       3.651768     -3.281447     -1.058438
  H       3.219195     -1.265083     -3.160415
  H       1.686634     -1.467506     -4.077166
  H       1.826132     -0.166469     -2.847595
46
Coordinates from ORCA-job data/geom_opt/78464/78464 E -1378.447839962932
  C       2.897058      2.733424     -1.153053
  O       1.772371      1.926971     -0.896513
  C       0.882486      2.293678      0.064625
  C       0.959850      3.493120      0.782277
  C       0.000602      3.776021      1.762486
  C      -1.021632      2.867579      2.031823
  C      -1.086841      1.666636      1.314119
  C      -0.148130      1.360121      0.325436
  P      -0.175337     -0.152924     -0.738737
  C      -1.554102     -1.123107      0.017101
  C      -1.380258     -2.311489      0.734552
  C      -2.477135     -3.057411      1.183329
  C      -3.770009     -2.611517      0.915312
  C      -3.976700     -1.427712      0.196814
  C      -2.874805     -0.692876     -0.257388
  O      -2.972499      0.466160     -0.958458
  C      -4.240062      1.003958     -1.249934
  C       1.294139     -1.033776     -0.025577
  C       1.732563     -0.866822      1.297457
  C       2.847564     -1.554684      1.781055
  C       3.544179     -2.430097      0.941092
  C       3.125518     -2.608054     -0.378393
  C       2.007573     -1.914713     -0.859058
  O       1.596725     -2.130041     -2.149959
  C       2.111503     -1.210468     -3.101847
  H       3.482336      2.215914     -1.925058
  H       2.610213      3.732277     -1.529093
  H       3.521643      2.858016     -0.250344
  H       1.757150      4.210024      0.585554
  H       0.065029      4.715229      2.317980
  H      -1.764873      3.084088      2.802845
  H      -1.875673      0.946703      1.538631
  H      -0.368987     -2.661234      0.947689
  H      -2.315437     -3.982100      1.742103
  H      -4.634231     -3.182804      1.264021
  H      -4.993171     -1.090345     -0.006200
  H      -4.063902      1.932793     -1.808482
  H      -4.843470      0.317679     -1.871249
  H      -4.803926      1.238864     -0.328949
  H       1.185643     -0.188159      1.955898
  H       3.169839     -1.411797      2.815577
  H       4.414055     -2.976744      1.314652
  H       3.646189     -3.289321     -1.055232
  H       3.213890     -1.278270     -3.163976
  H       1.677922     -1.477987     -4.075613
  H       1.825144     -0.174805     -2.849310
46
Coordinates from ORCA-job data/geom_opt/78464/78464 E -1378.447840243017
  C       2.895542      2.737925     -1.153327
  O       1.772892      1.929115     -0.895204
  C       0.882528      2.295049      0.065826
  C       0.959066      3.494250      0.783936
  C      -0.000609      3.776265      1.763997
  C      -1.022357      2.867127      2.032780
  C      -1.086653      1.666345      1.314702
  C      -0.147569      1.360796      0.326103
  P      -0.173891     -0.151785     -0.738785
  C      -1.552652     -1.122750      0.016084
  C      -1.378865     -2.311601      0.732791
  C      -2.475783     -3.058035      1.180579
  C      -3.768633     -2.612276      0.912258
  C      -3.975278     -1.428029      0.194497
  C      -2.873342     -0.692598     -0.258660
  O      -2.970964      0.466842     -0.959123
  C      -4.238497      1.005690     -1.248793
  C       1.295453     -1.032914     -0.025509
  C       1.735185     -0.863881      1.296789
  C       2.849288     -1.552793      1.781030
  C       3.543437     -2.431498      0.942475
  C       3.123420     -2.611454     -0.376325
  C       2.006616     -1.916813     -0.857726
  O       1.594536     -2.134330     -2.147879
  C       2.108616     -1.216435     -3.101797
  H       3.480438      2.222004     -1.926672
  H       2.606050      3.736443     -1.528193
  H       3.521538      2.863162     -0.251676
  H       1.756124      4.211582      0.587790
  H       0.063181      4.715297      2.319864
  H      -1.765953      3.082940      2.803660
  H      -1.875040      0.945790      1.538774
  H      -0.367595     -2.661217      0.946105
  H      -2.314100     -3.983046      1.738822
  H      -4.632908     -3.184000      1.260117
  H      -4.991714     -1.090779     -0.008906
  H      -4.062331      1.935583     -1.805570
  H      -4.842531      0.320900     -1.871152
  H      -4.801739      1.238894     -0.326997
  H       1.189988     -0.182826      1.954177
  H       3.172685     -1.408216      2.814971
  H       4.412474     -2.979134      1.316555
  H       3.642192     -3.295270     -1.052045
  H       3.210753     -1.286170     -3.166348
  H       1.672378     -1.484105     -4.074335
  H       1.824625     -0.180046     -2.849658
