46
Coordinates from ORCA-job data/geom_opt/78464/78464 E -1378.447840243017
  C           2.89554228914956      2.73792539196254     -1.15332684484951
  O           1.77289190471929      1.92911495536094     -0.89520370421626
  C           0.88252832534348      2.29504876750174      0.06582631324885
  C           0.95906616381543      3.49425020251061      0.78393604711883
  C          -0.00060855320399      3.77626541868979      1.76399698306416
  C          -1.02235653582882      2.86712660261458      2.03278023060262
  C          -1.08665312769759      1.66634466082993      1.31470189719659
  C          -0.14756933001969      1.36079550987329      0.32610329123459
  P          -0.17389123298541     -0.15178539720642     -0.73878548058142
  C          -1.55265191452533     -1.12275014390112      0.01608423495615
  C          -1.37886491248315     -2.31160062014768      0.73279140057763
  C          -2.47578257072064     -3.05803524800880      1.18057888023175
  C          -3.76863343949464     -2.61227621659900      0.91225818984660
  C          -3.97527848005461     -1.42802934359008      0.19449653725227
  C          -2.87334177040914     -0.69259758365771     -0.25865983665581
  O          -2.97096388330563      0.46684192124512     -0.95912312252594
  C          -4.23849741198966      1.00568982095473     -1.24879256659765
  C           1.29545269350856     -1.03291435933033     -0.02550945764850
  C           1.73518531155802     -0.86388096975991      1.29678912309203
  C           2.84928835833083     -1.55279277308911      1.78103014390608
  C           3.54343745782866     -2.43149753339034      0.94247533683970
  C           3.12342007549880     -2.61145353588263     -0.37632469878850
  C           2.00661648240300     -1.91681277593239     -0.85772621293558
  O           1.59453599621763     -2.13433000962192     -2.14787936798030
  C           2.10861647311105     -1.21643483846044     -3.10179711967681
  H           3.48043812669659      2.22200406293088     -1.92667237042206
  H           2.60604992995982      3.73644304790360     -1.52819298781945
  H           3.52153750149059      2.86316206030894     -0.25167649563090
  H           1.75612380722765      4.21158190212703      0.58779030070638
  H           0.06318115683052      4.71529686675100      2.31986440530043
  H          -1.76595335715343      3.08293998476861      2.80366006292798
  H          -1.87503972114043      0.94578983019943      1.53877394921703
  H          -0.36759508482957     -2.66121653574926      0.94610522211617
  H          -2.31409974969534     -3.98304564295422      1.73882185282100
  H          -4.63290809238838     -3.18400001634879      1.26011731292624
  H          -4.99171418383098     -1.09077886487177     -0.00890636853380
  H          -4.06233142451116      1.93558282184521     -1.80557014710194
  H          -4.84253143418431      0.32090025171688     -1.87115203181030
  H          -4.80173911917295      1.23889356204404     -0.32699722557868
  H           1.18998793253815     -0.18282635365982      1.95417710589410
  H           3.17268491966521     -1.40821558931975      2.81497138023528
  H           4.41247424561584     -2.97913394518030      1.31655546175133
  H           3.64219206315447     -3.29526989028428     -1.05204524229183
  H           3.21075344639676     -1.28617008506596     -3.16634786823362
  H           1.67237765869594     -1.48410485286275     -4.07433542875107
  H           1.82462500986900     -0.18004551726406     -2.84965808443391
