37
Coordinates from ORCA-job data/geom_opt/627824/627824 E -1223.653704351834
  C          -2.89316086307284     -3.45189583553948      0.17255136420384
  C          -1.73583718006372     -3.03626638870955      0.83729314538621
  C          -0.97674957439880     -1.97556238733000      0.33439456081857
  C          -1.36442171523636     -1.32040842676937     -0.84555189426489
  C          -2.52258736291074     -1.75453414438449     -1.51318511975534
  C          -3.28691409058581     -2.80649398562922     -1.00401392530461
  P          -0.45124586296056      0.10387482550308     -1.58947385429711
  C          -1.26962216168020      1.54216568302952     -0.76762588180832
  C          -2.12309839383427      1.43317507203697      0.34146261383370
  C          -2.69412559726988      2.57580095592388      0.90954557168734
  C          -2.41681346811545      3.83988450418710      0.38126035022676
  C          -1.57073101015618      3.95836745872854     -0.72609041663955
  C          -1.00995219203575      2.81632283336014     -1.30173848364919
  C           1.14858122750290      0.01538773979241     -0.66604907282075
  C           2.08238519309003     -0.94733611891781     -1.09243558328751
  C           3.31404637257820     -1.07965000828955     -0.45640362424880
  C           3.64452648459377     -0.23183621040979      0.61346801634683
  C           2.72577703753990      0.73990370430633      1.03377925584681
  C           1.48856885615372      0.86156188350213      0.40215639991903
  C           4.94772737421370     -0.32385773028287      1.32655790653140
  O           5.27997054814668      0.38072748508805      2.25185795555151
  O           5.75086925567375     -1.29337698958086      0.83642322096936
  H          -3.48542428701550     -4.28093581391852      0.56815339310082
  H          -1.42193967838115     -3.53795657623499      1.75644843784754
  H          -0.07907042932140     -1.65365250896042      0.86579717677360
  H          -2.82628182987570     -1.26006308822484     -2.44051102127231
  H          -4.18771783294791     -3.12967188189053     -1.53217780732337
  H          -2.34056077683058      0.45121823198703      0.76594962575619
  H          -3.35761407626175      2.47675449914889      1.77272444602627
  H          -2.86313542944177      4.73173739050837      0.82844735153999
  H          -1.35393925243855      4.94293979739983     -1.14851841790682
  H          -0.35929801986968      2.91168501156134     -2.17610467807383
  H           1.83510180235709     -1.60379197295854     -1.93163234726158
  H           4.02998463648788     -1.83310813664356     -0.78696805326096
  H           2.99892101524902      1.39034783413882      1.86703946590481
  H           0.77898455196269      1.61575175077594      0.74629735404034
  H           6.56479772915523     -1.26720845630399      1.36687356886403
