37
Coordinates from ORCA-job data/geom_opt/627824/627824 E -1223.650336115732
  C      -2.923798     -3.507115      0.172678
  C      -1.784779     -3.103210      0.863259
  C      -1.023132     -2.026815      0.396558
  C      -1.387953     -1.335052     -0.768095
  C      -2.541489     -1.760369     -1.451289
  C      -3.303197     -2.835626     -0.985283
  P      -0.462648      0.076216     -1.455781
  C      -1.274802      1.539507     -0.734402
  C      -2.235571      1.487916      0.286084
  C      -2.816136      2.657146      0.788979
  C      -2.448646      3.898417      0.277664
  C      -1.501566      3.972816     -0.738566
  C      -0.922256      2.804165     -1.240777
  C       1.148527     -0.002552     -0.605913
  C       2.116775     -0.887768     -1.114398
  C       3.378665     -1.004603     -0.519906
  C       3.698510     -0.232290      0.599299
  C       2.748262      0.653207      1.115595
  C       1.487153      0.766366      0.517406
  C       5.019414     -0.317986      1.267105
  O       5.366561      0.316451      2.246014
  O       5.847402     -1.197950      0.676632
  H      -3.514164     -4.343840      0.536471
  H      -1.484753     -3.624643      1.768745
  H      -0.145712     -1.740240      0.970122
  H      -2.862895     -1.252198     -2.359072
  H      -4.191610     -3.146091     -1.529000
  H      -2.551618      0.541060      0.716027
  H      -3.557888      2.593565      1.581194
  H      -2.901556      4.805355      0.669190
  H      -1.211950      4.938790     -1.143903
  H      -0.184010      2.892730     -2.036262
  H       1.895676     -1.504110     -1.985085
  H       4.099789     -1.701022     -0.940749
  H       2.981658      1.262129      1.987240
  H       0.778776      1.464471      0.957390
  H       6.664962     -1.146827      1.214830
37
Coordinates from ORCA-job data/geom_opt/627824/627824 E -1223.652864178370
  C      -2.893263     -3.473287      0.193481
  C      -1.719419     -3.079016      0.839741
  C      -0.969929     -2.007169      0.344289
  C      -1.376697     -1.318596     -0.809919
  C      -2.554216     -1.734884     -1.456258
  C      -3.311919     -2.796042     -0.954960
  P      -0.459211      0.085817     -1.540065
  C      -1.260649      1.532685     -0.758120
  C      -2.209901      1.442859      0.272178
  C      -2.793880      2.594660      0.809932
  C      -2.430321      3.855653      0.332178
  C      -1.486284      3.961029     -0.692940
  C      -0.915452      2.809016     -1.238594
  C       1.138026     -0.000209     -0.649398
  C       2.089783     -0.931185     -1.104422
  C       3.332946     -1.053098     -0.482915
  C       3.658478     -0.227174      0.602538
  C       2.723620      0.712315      1.056452
  C       1.475918      0.821139      0.438797
  C       4.970644     -0.309695      1.295643
  O       5.305704      0.371961      2.240173
  O       5.792104     -1.243612      0.770384
  H      -3.479296     -4.310382      0.581941
  H      -1.385244     -3.604176      1.738171
  H      -0.060288     -1.717717      0.875870
  H      -2.891127     -1.225726     -2.364018
  H      -4.225851     -3.101702     -1.470432
  H      -2.510204      0.471602      0.672216
  H      -3.532196      2.503730      1.610729
  H      -2.884916      4.755319      0.755266
  H      -1.200468      4.943191     -1.077729
  H      -0.188369      2.912159     -2.049707
  H       1.861820     -1.576253     -1.957571
  H       4.049354     -1.786352     -0.854570
  H       2.969515      1.357271      1.901962
  H       0.769053      1.560046      0.822237
  H       6.602136     -1.194179      1.307441
37
Coordinates from ORCA-job data/geom_opt/627824/627824 E -1223.653533086548
  C      -2.892803     -3.448655      0.195882
  C      -1.733685     -3.027131      0.855772
  C      -0.980358     -1.964943      0.346404
  C      -1.370430     -1.314347     -0.835673
  C      -2.529710     -1.755269     -1.497639
  C      -3.291420     -2.805806     -0.982157
  P      -0.454205      0.095487     -1.585071
  C      -1.258109      1.536893     -0.770211
  C      -2.148475      1.430423      0.310072
  C      -2.726831      2.573931      0.870511
  C      -2.417414      3.840525      0.364643
  C      -1.531296      3.957533     -0.713284
  C      -0.967553      2.814190     -1.281995
  C       1.141802      0.004658     -0.669203
  C       2.093497     -0.929561     -1.118458
  C       3.326185     -1.058984     -0.484185
  C       3.643255     -0.235292      0.608793
  C       2.706969      0.708872      1.053954
  C       1.468694      0.825346      0.423857
  C       4.948033     -0.325640      1.318587
  O       5.267268      0.358396      2.262809
  O       5.773428     -1.264504      0.801017
  H      -3.482341     -4.279259      0.595831
  H      -1.414576     -3.523749      1.777076
  H      -0.084432     -1.642231      0.882424
  H      -2.841714     -1.269439     -2.428054
  H      -4.193653     -3.131497     -1.508613
  H      -2.393083      0.450381      0.726799
  H      -3.418984      2.472677      1.711920
  H      -2.868463      4.734645      0.805660
  H      -1.286586      4.943314     -1.120237
  H      -0.287908      2.916748     -2.134686
  H       1.864808     -1.568349     -1.977364
  H       4.049262     -1.793780     -0.842122
  H       2.956967      1.345353      1.905467
  H       0.751359      1.560415      0.794806
  H       6.582504     -1.231350      1.336662
37
Coordinates from ORCA-job data/geom_opt/627824/627824 E -1223.653667611092
  C      -2.882888     -3.453115      0.184846
  C      -1.715461     -3.041143      0.835526
  C      -0.961339     -1.980106      0.325682
  C      -1.362795     -1.319850     -0.846954
  C      -2.529948     -1.750562     -1.500887
  C      -3.290103     -2.801996     -0.985142
  P      -0.454463      0.104157     -1.595869
  C      -1.270578      1.541922     -0.771302
  C      -2.149779      1.428061      0.317125
  C      -2.722732      2.568910      0.887683
  C      -2.421507      3.837646      0.383018
  C      -1.547942      3.960628     -0.703851
  C      -0.986746      2.820724     -1.281914
  C       1.147112      0.018830     -0.675434
  C       2.078333     -0.949881     -1.093278
  C       3.308289     -1.082824     -0.455042
  C       3.642138     -0.228922      0.609559
  C       2.725976      0.749090      1.021892
  C       1.490432      0.870804      0.387914
  C       4.945168     -0.321310      1.323164
  O       5.274943      0.384620      2.247074
  O       5.744157     -1.301775      0.843625
  H      -3.471531     -4.283013      0.584985
  H      -1.389002     -3.546113      1.748910
  H      -0.056865     -1.662233      0.848349
  H      -2.845287     -1.253901     -2.423559
  H      -4.198649     -3.120443     -1.503639
  H      -2.385611      0.443896      0.726633
  H      -3.406707      2.463740      1.734442
  H      -2.869539      4.728515      0.831273
  H      -1.309869      4.948024     -1.108913
  H      -0.315531      2.922624     -2.140363
  H       1.831133     -1.611504     -1.928833
  H       4.019481     -1.842572     -0.782303
  H       2.997120      1.406267      1.850633
  H       0.784923      1.630861      0.727889
  H       6.555669     -1.278057      1.377062
37
Coordinates from ORCA-job data/geom_opt/627824/627824 E -1223.653673251085
  C      -2.894894     -3.451941      0.174694
  C      -1.740711     -3.031431      0.842074
  C      -0.981319     -1.971505      0.338083
  C      -1.365214     -1.321849     -0.846073
  C      -2.519821     -1.760623     -1.516493
  C      -3.284492     -2.811624     -1.006242
  P      -0.452071      0.103867     -1.591212
  C      -1.270484      1.543257     -0.767397
  C      -2.127734      1.433309      0.338513
  C      -2.698713      2.575796      0.907200
  C      -2.417493      3.840851      0.383465
  C      -1.567015      3.959793     -0.720898
  C      -1.006750      2.818301     -1.297380
  C       1.149420      0.015421     -0.667009
  C       2.083309     -0.947199     -1.093078
  C       3.314183     -1.080833     -0.456086
  C       3.644650     -0.234285      0.614961
  C       2.726197      0.738206      1.034196
  C       1.489761      0.861134      0.401628
  C       4.946991     -0.328675      1.329560
  O       5.282374      0.382173      2.248400
  O       5.754387     -1.290671      0.830181
  H      -3.487383     -4.280251      0.570997
  H      -1.428928     -3.528707      1.764260
  H      -0.086430     -1.645687      0.871488
  H      -2.820016     -1.270266     -2.447041
  H      -4.182628     -3.137631     -1.537030
  H      -2.347720      0.450729      0.759839
  H      -3.365627      2.475003      1.767446
  H      -2.863781      4.732402      0.830825
  H      -1.346060      4.944591     -1.140438
  H      -0.353062      2.914369     -2.169333
  H       1.836054     -1.602817     -1.932910
  H       4.029436     -1.834949     -0.786509
  H       2.998832      1.388403      1.867764
  H       0.780566      1.615951      0.744940
  H       6.572186     -1.262612      1.354615
37
Coordinates from ORCA-job data/geom_opt/627824/627824 E -1223.653696643678
  C      -2.896533     -3.451015      0.174542
  C      -1.746721     -3.026658      0.846635
  C      -0.987140     -1.966251      0.343893
  C      -1.366307     -1.320444     -0.843867
  C      -2.516965     -1.763075     -1.518706
  C      -3.281922     -2.814546     -1.009563
  P      -0.451771      0.103218     -1.588760
  C      -1.268603      1.543010     -0.766522
  C      -2.119193      1.435338      0.344721
  C      -2.690605      2.578499      0.911510
  C      -2.416208      3.841879      0.380464
  C      -1.572744      3.958883     -0.729091
  C      -1.012013      2.816503     -1.303784
  C       1.148875      0.013561     -0.665445
  C       2.087355     -0.940743     -1.100225
  C       3.319710     -1.072931     -0.465363
  C       3.646525     -0.233242      0.611951
  C       2.723287      0.730599      1.040302
  C       1.485420      0.852014      0.409876
  C       4.950184     -0.325726      1.324196
  O       5.278189      0.370218      2.257450
  O       5.755672     -1.289904      0.827234
  H      -3.489370     -4.279470      0.570182
  H      -1.438941     -3.520938      1.771780
  H      -0.095589     -1.637577      0.881331
  H      -2.814123     -1.275755     -2.451842
  H      -4.176734     -3.144073     -1.543788
  H      -2.334380      0.454030      0.771830
  H      -3.352004      2.479817      1.776255
  H      -2.862519      4.734040      0.826735
  H      -1.357803      4.942630     -1.154181
  H      -0.363725      2.911099     -2.179924
  H       1.843161     -1.590892     -1.945174
  H       4.038754     -1.820269     -0.802823
  H       2.992979      1.375355      1.879051
  H       0.772654      1.600219      0.760456
  H       6.569150     -1.267400      1.358663
37
Coordinates from ORCA-job data/geom_opt/627824/627824 E -1223.653702723828
  C      -2.889535     -3.452966      0.175454
  C      -1.729266     -3.038802      0.836032
  C      -0.971784     -1.977652      0.331632
  C      -1.364004     -1.320175     -0.845510
  C      -2.525003     -1.752909     -1.509063
  C      -3.287688     -2.805385     -0.998485
  P      -0.452328      0.104148     -1.590518
  C      -1.270166      1.542403     -0.768357
  C      -2.131574      1.432395      0.334443
  C      -2.702936      2.574814      0.902807
  C      -2.418268      3.839938      0.381098
  C      -1.564080      3.959475     -0.720029
  C      -1.002984      2.817799     -1.295896
  C       1.147899      0.016333     -0.667999
  C       2.080514     -0.948618     -1.091756
  C       3.312062     -1.080983     -0.455425
  C       3.643800     -0.231256      0.612515
  C       2.726061      0.742373      1.030628
  C       1.489064      0.864139      0.398604
  C       4.946934     -0.323398      1.325699
  O       5.279793      0.382246      2.249878
  O       5.748645     -1.295419      0.837870
  H      -3.480555     -4.282424      0.572063
  H      -1.411466     -3.542053      1.753013
  H      -0.071685     -1.657565      0.860148
  H      -2.832551     -1.257123     -2.434429
  H      -4.190759     -3.127096     -1.523701
  H      -2.355246      0.449929      0.754506
  H      -3.372577      2.474353      1.761083
  H      -2.864840      4.731638      0.828352
  H      -1.340948      4.944741     -1.137557
  H      -0.345970      2.914835     -2.165331
  H       1.832824     -1.606881     -1.929439
  H       4.026492     -1.836345     -0.784949
  H       2.998932      1.394783      1.862439
  H       0.780825      1.620147      0.741583
  H       6.562368     -1.269437      1.368597
37
Coordinates from ORCA-job data/geom_opt/627824/627824 E -1223.653704188122
  C      -2.892450     -3.452252      0.173805
  C      -1.734618     -3.036572      0.837641
  C      -0.975966     -1.975785      0.334230
  C      -1.364496     -1.320579     -0.845405
  C      -2.523165     -1.754719     -1.512107
  C      -3.287072     -2.806727     -1.002403
  P      -0.451695      0.103732     -1.589803
  C      -1.269839      1.542161     -0.767802
  C      -2.126598      1.432810      0.338682
  C      -2.697695      2.575427      0.906818
  C      -2.417147      3.839917      0.381312
  C      -1.567641      3.958741     -0.723422
  C      -1.006890      2.816797     -1.299192
  C       1.148377      0.015452     -0.666620
  C       2.082099     -0.947480     -1.092625
  C       3.313774     -1.079746     -0.456566
  C       3.644514     -0.231620      0.612967
  C       2.725871      0.740385      1.032870
  C       1.488651      0.861964      0.401238
  C       4.947746     -0.323574      1.326037
  O       5.280179      0.381361      2.250951
  O       5.750707     -1.293371      0.836039
  H      -3.484411     -4.281319      0.569787
  H      -1.419856     -3.538239      1.756525
  H      -0.077904     -1.654007      0.865077
  H      -2.827675     -1.260260     -2.439152
  H      -4.188261     -3.129769     -1.529976
  H      -2.346707      0.450622      0.761275
  H      -3.363795      2.475816      1.767930
  H      -2.863475      4.731753      0.828505
  H      -1.348076      4.943563     -1.143813
  H      -0.353579      2.912735     -2.171495
  H       1.834806     -1.604270     -1.931548
  H       4.029384     -1.833524     -0.787110
  H       2.998792      1.391313      1.865831
  H       0.779349      1.616505      0.745218
  H       6.564765     -1.267242      1.366302
37
Coordinates from ORCA-job data/geom_opt/627824/627824 E -1223.653704351834
  C      -2.893161     -3.451896      0.172551
  C      -1.735837     -3.036266      0.837293
  C      -0.976750     -1.975562      0.334395
  C      -1.364422     -1.320408     -0.845552
  C      -2.522587     -1.754534     -1.513185
  C      -3.286914     -2.806494     -1.004014
  P      -0.451246      0.103875     -1.589474
  C      -1.269622      1.542166     -0.767626
  C      -2.123098      1.433175      0.341463
  C      -2.694126      2.575801      0.909546
  C      -2.416813      3.839885      0.381260
  C      -1.570731      3.958367     -0.726090
  C      -1.009952      2.816323     -1.301738
  C       1.148581      0.015388     -0.666049
  C       2.082385     -0.947336     -1.092436
  C       3.314046     -1.079650     -0.456404
  C       3.644526     -0.231836      0.613468
  C       2.725777      0.739904      1.033779
  C       1.488569      0.861562      0.402156
  C       4.947727     -0.323858      1.326558
  O       5.279971      0.380727      2.251858
  O       5.750869     -1.293377      0.836423
  H      -3.485424     -4.280936      0.568153
  H      -1.421940     -3.537957      1.756448
  H      -0.079070     -1.653653      0.865797
  H      -2.826282     -1.260063     -2.440511
  H      -4.187718     -3.129672     -1.532178
  H      -2.340561      0.451218      0.765950
  H      -3.357614      2.476754      1.772724
  H      -2.863135      4.731737      0.828447
  H      -1.353939      4.942940     -1.148518
  H      -0.359298      2.911685     -2.176105
  H       1.835102     -1.603792     -1.931632
  H       4.029985     -1.833108     -0.786968
  H       2.998921      1.390348      1.867039
  H       0.778985      1.615752      0.746297
  H       6.564798     -1.267208      1.366874
