! RI BP86 def2-SVP D3BJ TIGHTSCF Opt
%pal
nprocs 6
end

* xyz 0 1
C      3.732652   -1.706081   -1.128638
C      2.690824   -1.166598   -0.164026
C      1.274678   -1.390347   -0.680281
P     -0.004640   -0.786663    0.455502
O      0.072299   -1.544108    1.758623
C     -1.535633   -1.220539   -0.415651
C     -2.794035   -0.835176    0.352445
C     -4.053908   -1.235594   -0.395424
C      0.113264    0.976818    0.576023
C      0.055844    1.795961   -0.559341
C      0.151074    3.183447   -0.438342
C      0.304588    3.765723    0.818267
C      0.363036    2.962148    1.954566
C      0.267825    1.575741    1.833077
H      3.659083   -1.211210   -2.102299
H      4.739233   -1.533469   -0.735115
H      3.607160   -2.782962   -1.279876
H      2.807125   -1.652889    0.810940
H      2.861841   -0.096487   -0.004113
H      1.145569   -0.900346   -1.651579
H      1.103584   -2.461739   -0.835886
H     -1.525587   -2.302878   -0.588304
H     -1.531890   -0.738573   -1.399462
H     -2.784156   -1.315023    1.337438
H     -2.803360    0.245834    0.529325
H     -4.104192   -0.742147   -1.371287
H     -4.941804   -0.948502    0.176484
H     -4.088177   -2.317991   -0.555234
H     -0.063576    1.360483   -1.548051
H      0.105637    3.812058   -1.324168
H      0.378771    4.846013    0.912890
H      0.482736    3.413117    2.936387
H      0.314135    0.951979    2.725109
*