! RI BP86 def2-SVP D3BJ TIGHTSCF Opt
%pal
nprocs 6
end

* xyz 0 1
C      0.137986    2.698474   -0.899314
C     -0.550883    1.504274   -0.235986
C     -0.708808    1.771934    1.257793
P      0.235601   -0.072306   -0.676081
O      0.946845    0.008041   -2.002126
C     -1.080979   -1.323932   -0.749007
C     -1.910985   -1.464712    0.519810
C     -2.002777   -1.122849   -1.953038
C      1.384110   -0.556247    0.644062
C      2.607800    0.360061    0.702997
C      1.871561   -1.998768    0.494505
H      0.145316    2.580628   -1.987609
H     -0.381359    3.634120   -0.667725
H      1.177029    2.791171   -0.571614
H     -1.560606    1.463772   -0.659558
H      0.257095    1.946815    1.739500
H     -1.328677    2.658588    1.429069
H     -1.182219    0.931090    1.768628
H     -0.569347   -2.279240   -0.913550
H     -1.270897   -1.598466    1.395985
H     -2.533748   -0.581010    0.686538
H     -2.576395   -2.332155    0.454902
H     -2.717394   -1.947580   -2.042626
H     -1.421821   -1.077154   -2.879437
H     -2.568029   -0.189878   -1.872039
H      0.857691   -0.484476    1.601380
H      2.317037    1.397709    0.878963
H      3.284764    0.064203    1.511161
H      3.164094    0.330829   -0.239664
H      1.042894   -2.704225    0.599659
H      2.322517   -2.158985   -0.490154
H      2.612584   -2.249726    1.260630
*