! RIJONX B3LYP def2-SVP D3BJ TIGHTSCF Opt
%pal
nprocs 6
end

* xyz 0 1
C      4.586660   -1.223055    0.850284
N      3.307638   -0.557506    0.587904
C      3.190267    0.635078    1.431106
C      3.193232   -0.233499   -0.843983
C      1.814418    0.291121   -1.272147
C      0.682804   -0.682737   -0.928467
P     -0.955876   -0.103563   -1.574306
C     -2.153549   -1.282760   -0.850162
C     -3.497273   -0.897906   -0.697293
C     -4.446929   -1.775166   -0.165727
C     -4.072818   -3.060871    0.210774
C     -2.752331   -3.469397    0.048795
C     -1.802929   -2.589869   -0.483088
C     -1.237388    1.382231   -0.548916
C     -1.434751    2.615051   -1.188411
C     -1.643134    3.780188   -0.445797
C     -1.656624    3.727660    0.945883
C     -1.462602    2.511116    1.595465
C     -1.253826    1.346103    0.853059
H      4.661925   -1.511676    1.904731
H      4.666385   -2.148338    0.268734
H      5.443181   -0.584825    0.604365
H      2.196345    1.085266    1.346747
H      3.940058    1.393966    1.180198
H      3.311173    0.370918    2.488072
H      3.389899   -1.140712   -1.430726
H      3.958280    0.498158   -1.135699
H      1.840293    0.457608   -2.357433
H      1.634588    1.274776   -0.823335
H      0.908553   -1.650700   -1.390037
H      0.628758   -0.840759    0.153515
H     -3.822126    0.098884   -0.990570
H     -5.477644   -1.450771   -0.050604
H     -4.809526   -3.745018    0.622696
H     -2.457005   -4.476516    0.331534
H     -0.787874   -2.955993   -0.605893
H     -1.428166    2.680020   -2.274526
H     -1.795557    4.727453   -0.956190
H     -1.820452    4.633323    1.523651
H     -1.476078    2.464856    2.681168
H     -1.110002    0.407861    1.384630
*