34
Coordinates from ORCA-job data/geom_opt/300563/300563 E -1530.898852177831
  C          -3.95085911031195      0.52732502427003      1.52897850828249
  C          -3.93838509928207      0.97604657511182      0.20535621065673
  C          -2.84273495042952      0.69662281917876     -0.61499405106969
  C          -1.73704581028415     -0.01379145392338     -0.11719272125966
  C          -1.75915776268891     -0.46140816435803      1.21302694788275
  C          -2.86207132048983     -0.19523106075577      2.02733415163640
  P          -0.35803388332684     -0.30551274597026     -1.31878987384105
  C           0.64351348336208     -1.62388883922186     -0.51271046866948
  C           2.02532744836902     -1.51525081036261     -0.29547617957613
  C           2.75326257274886     -2.59549326089015      0.21103333348031
  C           2.11263767703500     -3.80061330446239      0.50831668242152
  C           0.73738320513998     -3.92339564672605      0.28475929700645
  C           0.01120896338424     -2.84870688489830     -0.23032647666726
  C           0.67542959332626      1.20797575327049     -1.00158402065402
  C           1.01731820546695      2.02199732126601     -2.08966698042535
  C           1.74870139993298      3.20331092740338     -1.93267036761033
  C           2.15537699390216      3.59320715632305     -0.65589550824219
  C           1.83599583791996      2.80128010853295      0.45118204388611
  C           1.10546322056079      1.62721169909477      0.26577670633899
  F           0.84002991784126      0.89712138532024      1.34721898861354
  F           2.23254223236023      3.17278562001583      1.66518034331023
  F           2.84811318958043      4.71203877827103     -0.49157155190488
  F           2.05708727766784      3.95512258937660     -2.98521626854917
  F           0.64985875540632      1.69181404937787     -3.32632237352290
  H          -4.81040725211351      0.73610535729697      2.17097623097352
  H          -4.78873426987166      1.53462765417224     -0.19403865882439
  H          -2.84435894203480      1.03050829263492     -1.65691441865645
  H          -0.90966177449028     -1.01408473478506      1.61558496065597
  H          -2.86729619715099     -0.54887479738722      3.06165682719669
  H           2.54452600585903     -0.58182303336471     -0.52215361913555
  H           3.82833157812952     -2.49036138024923      0.37811104710791
  H           2.68220623238293     -4.64245286540877      0.90945626413698
  H           0.22653502352879     -4.86339908080101      0.50870917185779
  H          -1.06210144143010     -2.96081504735218     -0.40713417683587
