34
Coordinates from ORCA-job data/geom_opt/300563/300563 E -1530.894435160556
  C      -4.008100      0.530957      1.313228
  C      -4.041488      0.662644     -0.071718
  C      -2.892531      0.410000     -0.826479
  C      -1.691311      0.019301     -0.210324
  C      -1.678680     -0.105301      1.186402
  C      -2.827383      0.147040      1.942320
  P      -0.241265     -0.264413     -1.279591
  C       0.668203     -1.651850     -0.533695
  C       2.070354     -1.721124     -0.597710
  C       2.768283     -2.809085     -0.063144
  C       2.075293     -3.863076      0.523360
  C       0.685201     -3.836332      0.561828
  C      -0.010181     -2.747431      0.026783
  C       0.728436      1.232767     -0.896131
  C       0.822190      2.229330     -1.884601
  C       1.525887      3.412113     -1.665370
  C       2.152915      3.632202     -0.451341
  C       2.076292      2.671235      0.542686
  C       1.372183      1.487152      0.324914
  F       1.333006      0.592728      1.323204
  F       2.683600      2.878244      1.719753
  F       2.832221      4.767794     -0.239775
  F       1.595986      4.336894     -2.633092
  F       0.226954      2.058004     -3.076469
  H      -4.900741      0.726506      1.901616
  H      -4.961127      0.962073     -0.567964
  H      -2.948525      0.522528     -1.908195
  H      -0.775820     -0.406379      1.713057
  H      -2.796238      0.041981      3.023978
  H       2.647649     -0.931905     -1.072793
  H       3.853826     -2.834566     -0.113517
  H       2.616555     -4.709765      0.936973
  H       0.136511     -4.665773      1.000590
  H      -1.098154     -2.774495      0.051217
34
Coordinates from ORCA-job data/geom_opt/300563/300563 E -1530.897437437935
  C      -4.018277      0.516974      1.313031
  C      -4.048485      0.687303     -0.072619
  C      -2.906128      0.424671     -0.834532
  C      -1.713261      0.001881     -0.224164
  C      -1.699053     -0.168673      1.170990
  C      -2.842250      0.085647      1.933094
  P      -0.265720     -0.274987     -1.316470
  C       0.660490     -1.625900     -0.514128
  C       2.063121     -1.679187     -0.584139
  C       2.768354     -2.766124     -0.062401
  C       2.082586     -3.826799      0.534030
  C       0.687539     -3.799461      0.591069
  C      -0.015957     -2.709939      0.070318
  C       0.730152      1.221063     -0.920080
  C       0.825012      2.227149     -1.896271
  C       1.536332      3.407198     -1.674382
  C       2.180888      3.607654     -0.456696
  C       2.109288      2.628306      0.531117
  C       1.388819      1.456869      0.296935
  F       1.348743      0.556638      1.280870
  F       2.724031      2.816914      1.700280
  F       2.861396      4.729425     -0.236826
  F       1.602523      4.340494     -2.624731
  F       0.221489      2.081224     -3.076733
  H      -4.912270      0.715820      1.909962
  H      -4.966033      1.018376     -0.565254
  H      -2.951098      0.556643     -1.919200
  H      -0.795330     -0.505034      1.680383
  H      -2.812118     -0.052108      3.016862
  H       2.629031     -0.869077     -1.053176
  H       3.859505     -2.782282     -0.119544
  H       2.633829     -4.673931      0.950203
  H       0.140481     -4.628075      1.047358
  H      -1.107628     -2.718674      0.124845
34
Coordinates from ORCA-job data/geom_opt/300563/300563 E -1530.897569735468
  C      -4.017783      0.525832      1.358097
  C      -4.077936      0.640753     -0.034912
  C      -2.944358      0.370959     -0.807760
  C      -1.734666     -0.003185     -0.200775
  C      -1.683017     -0.114850      1.201481
  C      -2.817064      0.144656      1.973130
  P      -0.297654     -0.278352     -1.328886
  C       0.652070     -1.619734     -0.514015
  C       2.053869     -1.657107     -0.604486
  C       2.771405     -2.751432     -0.121356
  C       2.099564     -3.837080      0.454386
  C       0.702058     -3.818529      0.529175
  C      -0.015823     -2.721037      0.047397
  C       0.721773      1.220325     -0.912397
  C       0.928941      2.170615     -1.923219
  C       1.657994      3.343759     -1.708454
  C       2.204067      3.592415     -0.445130
  C       2.010913      2.669572      0.589516
  C       1.271686      1.510939      0.346481
  F       1.091376      0.689100      1.376084
  F       2.516381      2.911547      1.794036
  F       2.893178      4.699352     -0.225379
  F       1.836222      4.219177     -2.690655
  F       0.428720      1.982365     -3.138328
  H      -4.906400      0.730567      1.965585
  H      -5.013077      0.932710     -0.524732
  H      -3.000425      0.451928     -1.898917
  H      -0.753072     -0.402647      1.695588
  H      -2.761652      0.053958      3.063340
  H       2.600282     -0.819097     -1.052714
  H       3.864554     -2.754384     -0.190652
  H       2.662717     -4.693285      0.841416
  H       0.162870     -4.663456      0.970992
  H      -1.107707     -2.726356      0.116063
34
Coordinates from ORCA-job data/geom_opt/300563/300563 E -1530.897921210422
  C      -4.071330      0.539091      1.338530
  C      -4.079570      0.731855     -0.046334
  C      -2.933160      0.452317     -0.796555
  C      -1.764333     -0.011389     -0.172954
  C      -1.763610     -0.204857      1.221664
  C      -2.910613      0.066324      1.967976
  P      -0.309458     -0.291689     -1.294834
  C       0.656553     -1.626144     -0.465181
  C       2.059872     -1.629973     -0.531124
  C       2.791025     -2.718995     -0.058246
  C       2.132850     -3.835953      0.472387
  C       0.734302     -3.848741      0.519043
  C       0.000163     -2.757662      0.047201
  C       0.728677      1.219434     -0.902438
  C       0.869768      2.181073     -1.911881
  C       1.607000      3.357144     -1.734806
  C       2.230370      3.595061     -0.504141
  C       2.109148      2.657839      0.531881
  C       1.357855      1.500079      0.321292
  F       1.268950      0.660895      1.348104
  F       2.695746      2.887343      1.698724
  F       2.929020      4.699258     -0.317351
  F       1.721040      4.243006     -2.714252
  F       0.300286      2.003807     -3.097379
  H      -4.968036      0.752468      1.927838
  H      -4.981997      1.093894     -0.547798
  H      -2.940221      0.590532     -1.882316
  H      -0.865470     -0.568574      1.719039
  H      -2.898040     -0.089063      3.050953
  H       2.588204     -0.764742     -0.942714
  H       3.884008     -2.694892     -0.104153
  H       2.706217     -4.689700      0.844435
  H       0.205724     -4.716368      0.925595
  H      -1.090940     -2.782682      0.089793
34
Coordinates from ORCA-job data/geom_opt/300563/300563 E -1530.898322160922
  C      -4.044844      0.502958      1.348061
  C      -4.061994      0.729105     -0.029541
  C      -2.920827      0.468038     -0.793988
  C      -1.745494     -0.007148     -0.189947
  C      -1.740991     -0.237562      1.196804
  C      -2.883825      0.015197      1.957588
  P      -0.301843     -0.273893     -1.313168
  C       0.656186     -1.615195     -0.501116
  C       2.058869     -1.644075     -0.578021
  C       2.778423     -2.732004     -0.080555
  C       2.109016     -3.814898      0.496734
  C       0.713941     -3.802342      0.566200
  C      -0.007867     -2.714350      0.068203
  C       0.719961      1.229858     -0.916534
  C       0.896106      2.181945     -1.931600
  C       1.630936      3.354463     -1.734683
  C       2.214261      3.598549     -0.491428
  C       2.063098      2.669465      0.540755
  C       1.317058      1.510750      0.320916
  F       1.210358      0.659477      1.342299
  F       2.623921      2.900270      1.725445
  F       2.915323      4.707320     -0.290053
  F       1.776507      4.236404     -2.720322
  F       0.356506      1.995875     -3.136481
  H      -4.936616      0.700624      1.947058
  H      -4.966881      1.102382     -0.514284
  H      -2.941831      0.635912     -1.873959
  H      -0.844389     -0.618069      1.685010
  H      -2.866685     -0.168113      3.034441
  H       2.601006     -0.808595     -1.026855
  H       3.869114     -2.731656     -0.142144
  H       2.672220     -4.663859      0.889792
  H       0.179537     -4.644099      1.012659
  H      -1.098263     -2.722737      0.132715
34
Coordinates from ORCA-job data/geom_opt/300563/300563 E -1530.898256287406
  C      -4.028604      0.532904      1.371203
  C      -4.073587      0.704923     -0.013531
  C      -2.941393      0.433676     -0.787563
  C      -1.747815      0.000950     -0.186526
  C      -1.714406     -0.170784      1.207950
  C      -2.848662      0.091747      1.978686
  P      -0.319654     -0.281372     -1.323017
  C       0.638177     -1.621796     -0.510537
  C       2.043052     -1.599449     -0.505387
  C       2.772244     -2.680022     -0.004974
  C       2.110729     -3.805766      0.492855
  C       0.714793     -3.845429      0.478567
  C      -0.016521     -2.764696     -0.021448
  C       0.711814      1.213291     -0.930975
  C       0.890587      2.169897     -1.941386
  C       1.632847      3.336160     -1.737407
  C       2.218147      3.569076     -0.493704
  C       2.064016      2.634829      0.532238
  C       1.312537      1.481136      0.306369
  F       1.198979      0.621100      1.320615
  F       2.627745      2.855160      1.718427
  F       2.924936      4.674333     -0.285521
  F       1.780556      4.224804     -2.717778
  F       0.345922      1.994831     -3.146543
  H      -4.913434      0.738836      1.978282
  H      -4.993580      1.043349     -0.495989
  H      -2.984458      0.559020     -1.872869
  H      -0.800259     -0.509151      1.695927
  H      -2.809232     -0.045483      3.062063
  H       2.579678     -0.729143     -0.891320
  H       3.864159     -2.639926     -0.001377
  H       2.681344     -4.649113      0.888348
  H       0.187138     -4.722305      0.861489
  H      -1.107795     -2.815593     -0.025164
34
Coordinates from ORCA-job data/geom_opt/300563/300563 E -1530.898512271466
  C      -4.032736      0.530655      1.379264
  C      -4.058970      0.752561      0.000173
  C      -2.926356      0.477868     -0.772072
  C      -1.751881     -0.008377     -0.174500
  C      -1.735434     -0.230169      1.214004
  C      -2.870165      0.035878      1.982177
  P      -0.320818     -0.286958     -1.316011
  C       0.648434     -1.622370     -0.499067
  C       2.053091     -1.613238     -0.530836
  C       2.783707     -2.696762     -0.040669
  C       2.123909     -3.814719      0.479759
  C       0.726611     -3.841683      0.496789
  C      -0.006475     -2.758162      0.006092
  C       0.712147      1.216316     -0.927482
  C       0.919549      2.148248     -1.954084
  C       1.659373      3.318786     -1.761312
  C       2.210250      3.582511     -0.505824
  C       2.022390      2.675261      0.541507
  C       1.274580      1.517981      0.320963
  F       1.118874      0.695028      1.357485
  F       2.547064      2.928230      1.736701
  F       2.910247      4.689916     -0.305534
  F       1.836492      4.181289     -2.757037
  F       0.410775      1.945157     -3.167570
  H      -4.918595      0.739365      1.985567
  H      -4.965137      1.132657     -0.479472
  H      -2.950995      0.639859     -1.853823
  H      -0.833815     -0.609895      1.694520
  H      -2.845429     -0.140666      3.061178
  H       2.585470     -0.748031     -0.935450
  H       3.876622     -2.665677     -0.063142
  H       2.696524     -4.661809      0.866768
  H       0.199043     -4.712500      0.895991
  H      -1.098345     -2.796554      0.024947
34
Coordinates from ORCA-job data/geom_opt/300563/300563 E -1530.898572485595
  C      -4.025657      0.525126      1.393910
  C      -4.044205      0.789114      0.022425
  C      -2.915678      0.514866     -0.755696
  C      -1.751695     -0.010551     -0.170582
  C      -1.744176     -0.276852      1.209713
  C      -2.875564     -0.011903      1.983304
  P      -0.325890     -0.287363     -1.318168
  C       0.646940     -1.621278     -0.503257
  C       2.051673     -1.600749     -0.512728
  C       2.783107     -2.681482     -0.016895
  C       2.124153     -3.805590      0.490045
  C       0.727215     -3.842137      0.489176
  C      -0.006563     -2.762376     -0.008485
  C       0.706713      1.216939     -0.937224
  C       0.929119      2.136387     -1.971915
  C       1.669264      3.307237     -1.782473
  C       2.205878      3.583000     -0.524030
  C       2.005541      2.686897      0.529925
  C       1.257164      1.529215      0.313825
  F       1.095924      0.711621      1.354155
  F       2.520503      2.949753      1.727678
  F       2.907884      4.690739     -0.327776
  F       1.860549      4.158647     -2.785720
  F       0.434562      1.920431     -3.189783
  H      -4.908311      0.732448      2.004301
  H      -4.941226      1.201150     -0.446743
  H      -2.935058      0.709072     -1.831842
  H      -0.852792     -0.691730      1.679705
  H      -2.857980     -0.223040      3.055690
  H       2.583392     -0.730576     -0.905573
  H       3.875481     -2.642929     -0.023787
  H       2.697087     -4.649387      0.882103
  H       0.200906     -4.717129      0.879386
  H      -1.098261     -2.807572     -0.002663
34
Coordinates from ORCA-job data/geom_opt/300563/300563 E -1530.898659254517
  C      -4.005273      0.530708      1.429894
  C      -4.012824      0.857501      0.071974
  C      -2.894569      0.577552     -0.718315
  C      -1.750071     -0.014310     -0.157798
  C      -1.754230     -0.343812      1.208188
  C      -2.876766     -0.074139      1.993321
  P      -0.338038     -0.294884     -1.320832
  C       0.644287     -1.623272     -0.507407
  C       2.047463     -1.574178     -0.464061
  C       2.782567     -2.650694      0.036805
  C       2.128952     -3.796556      0.498410
  C       0.734081     -3.861001      0.446564
  C      -0.002742     -2.786936     -0.058162
  C       0.695174      1.211470     -0.957388
  C       0.953638      2.102273     -2.008417
  C       1.692294      3.275002     -1.824739
  C       2.189375      3.580917     -0.557641
  C       1.954582      2.712136      0.511419
  C       1.209512      1.551413      0.301478
  F       1.018822      0.754134      1.352553
  F       2.435362      3.002754      1.717383
  F       2.889742      4.691599     -0.367425
  F       1.918040      4.100669     -2.842826
  F       0.496700      1.856271     -3.235762
  H      -4.880308      0.741423      2.049493
  H      -4.893931      1.322104     -0.377186
  H      -2.906586      0.819227     -1.784787
  H      -0.878939     -0.811516      1.658327
  H      -2.868758     -0.334607      3.054645
  H       2.575114     -0.686739     -0.820549
  H       3.873234     -2.591143      0.070168
  H       2.704451     -4.636028      0.895169
  H       0.212564     -4.753448      0.801217
  H      -1.092918     -2.853892     -0.093713
34
Coordinates from ORCA-job data/geom_opt/300563/300563 E -1530.898759153549
  C      -3.981681      0.539558      1.468448
  C      -3.978301      0.919450      0.124200
  C      -2.870436      0.633051     -0.677540
  C      -1.744980     -0.016291     -0.141375
  C      -1.760254     -0.398030      1.210088
  C      -2.874199     -0.123398      2.006170
  P      -0.348382     -0.303318     -1.321563
  C       0.644877     -1.625639     -0.510266
  C       2.043404     -1.550642     -0.407204
  C       2.779078     -2.626343      0.096168
  C       2.130477     -3.795075      0.502505
  C       0.740291     -3.885318      0.391786
  C       0.004124     -2.813646     -0.117758
  C       0.684515      1.205828     -0.978728
  C       0.978939      2.067090     -2.044372
  C       1.713206      3.243522     -1.866160
  C       2.167004      3.582363     -0.591540
  C       1.897160      2.741819      0.491544
  C       1.159997      1.575337      0.286949
  F       0.938448      0.799014      1.346989
  F       2.339268      3.063575      1.704625
  F       2.862067      4.697842     -0.407119
  F       1.974916      4.042012     -2.897575
  F       0.563692      1.788014     -3.279512
  H      -4.849287      0.754241      2.096912
  H      -4.843829      1.429505     -0.305305
  H      -2.875750      0.914145     -1.734464
  H      -0.900071     -0.909850      1.641168
  H      -2.875152     -0.424886      3.056522
  H       2.567556     -0.645426     -0.720024
  H       3.866073     -2.547659      0.175203
  H       2.706168     -4.633147      0.901744
  H       0.223209     -4.796486      0.702213
  H      -1.082147     -2.901214     -0.202728
34
Coordinates from ORCA-job data/geom_opt/300563/300563 E -1530.898814915810
  C      -3.966587      0.542748      1.494787
  C      -3.957388      0.951055      0.158418
  C      -2.855202      0.662903     -0.649924
  C      -1.740034     -0.015920     -0.128231
  C      -1.760460     -0.424509      1.214650
  C      -2.869696     -0.149107      2.017305
  P      -0.353357     -0.307899     -1.319989
  C       0.647024     -1.626636     -0.510977
  C       2.039700     -1.536340     -0.360296
  C       2.772685     -2.614319      0.143072
  C       2.126809     -3.799563      0.502663
  C       0.741662     -3.904755      0.345016
  C       0.009337     -2.831604     -0.165730
  C       0.679438      1.203698     -0.991983
  C       0.994639      2.045609     -2.066553
  C       1.725363      3.225235     -1.894192
  C       2.153632      3.586290     -0.616610
  C       1.862495      2.764924      0.476132
  C       1.132064      1.593367      0.276669
  F       0.890468      0.833530      1.343350
  F       2.280586      3.108728      1.691454
  F       2.844307      4.705053     -0.438083
  F       2.009287      4.004756     -2.933936
  F       0.603895      1.744306     -3.303902
  H      -4.830283      0.758518      2.128595
  H      -4.814736      1.484386     -0.259581
  H      -2.857393      0.964772     -1.701407
  H      -0.906509     -0.956039      1.635118
  H      -2.874411     -0.471752      3.061551
  H       2.562142     -0.618076     -0.636048
  H       3.855692     -2.524124      0.258654
  H       2.700478     -4.639388      0.901733
  H       0.226779     -4.829176      0.618277
  H      -1.072425     -2.930675     -0.290001
34
Coordinates from ORCA-job data/geom_opt/300563/300563 E -1530.898832434943
  C      -3.948577      0.542617      1.532737
  C      -3.922481      1.009297      0.215487
  C      -2.829495      0.719215     -0.604326
  C      -1.738828     -0.018820     -0.111961
  C      -1.775738     -0.485346      1.211125
  C      -2.876866     -0.208694      2.024624
  P      -0.363758     -0.313195     -1.317135
  C       0.644472     -1.627531     -0.510986
  C       2.026569     -1.511805     -0.298554
  C       2.761713     -2.588539      0.204994
  C       2.127906     -3.796577      0.504856
  C       0.752530     -3.926119      0.287242
  C       0.019155     -2.854796     -0.224889
  C       0.669636      1.201437     -1.006354
  C       1.020073      2.009575     -2.095520
  C       1.750395      3.191467     -1.936850
  C       2.143628      3.588143     -0.658405
  C       1.816626      2.800918      0.449603
  C       1.088234      1.625900      0.263344
  F       0.814403      0.897703      1.343797
  F       2.202020      3.179003      1.665374
  F       2.834051      4.708784     -0.493035
  F       2.068735      3.938361     -2.990266
  F       0.663634      1.672989     -3.333799
  H      -4.805955      0.759256      2.174897
  H      -4.760334      1.589611     -0.178968
  H      -2.819955      1.066199     -1.641822
  H      -0.939887     -1.062153      1.608398
  H      -2.894388     -0.577013      3.053606
  H       2.539642     -0.575294     -0.526472
  H       3.836873     -2.478914      0.368117
  H       2.703127     -4.635334      0.904198
  H       0.247197     -4.868315      0.513930
  H      -1.054354     -2.972032     -0.396987
34
Coordinates from ORCA-job data/geom_opt/300563/300563 E -1530.898846878802
  C      -3.951623      0.532888      1.528165
  C      -3.935913      0.980691      0.203875
  C      -2.839393      0.698353     -0.613984
  C      -1.735642     -0.013840     -0.113521
  C      -1.760735     -0.459605      1.216880
  C      -2.864878     -0.191083      2.028988
  P      -0.357925     -0.308347     -1.316019
  C       0.645927     -1.625637     -0.510782
  C       2.026966     -1.515982     -0.290636
  C       2.755113     -2.596899      0.214094
  C       2.115304     -3.803830      0.506366
  C       0.740404     -3.927632      0.279795
  C       0.014336     -2.852120     -0.233526
  C       0.675038      1.206247     -1.003108
  C       1.013202      2.021700     -2.090695
  C       1.743261      3.203924     -1.933403
  C       2.151175      3.593046     -0.656764
  C       1.834839      2.799713      0.450543
  C       1.106577      1.624341      0.264990
  F       0.843090      0.892828      1.345393
  F       2.232899      3.171245      1.663896
  F       2.841994      4.712863     -0.492465
  F       2.049413      3.957042     -2.985546
  F       0.643148      1.692240     -3.326326
  H      -4.811788      0.743958      2.168900
  H      -4.784604      1.540704     -0.197428
  H      -2.838469      1.030863     -1.656478
  H      -0.911765     -1.011623      1.622243
  H      -2.872413     -0.543399      3.063934
  H       2.545441     -0.580876     -0.513120
  H       3.829925     -2.491235      0.383664
  H       2.685367     -4.646445      0.905747
  H       0.230158     -4.869083      0.499713
  H      -1.058426     -2.965013     -0.413383
34
Coordinates from ORCA-job data/geom_opt/300563/300563 E -1530.898851184987
  C      -3.952123      0.530951      1.526934
  C      -3.937234      0.979321      0.203060
  C      -2.840997      0.697764     -0.615617
  C      -1.736901     -0.014303     -0.116094
  C      -1.761484     -0.461299      1.214096
  C      -2.865135     -0.193162      2.026875
  P      -0.358248     -0.307193     -1.317553
  C       0.644417     -1.624986     -0.511892
  C       2.026651     -1.516104     -0.297646
  C       2.755674     -2.595921      0.208089
  C       2.115689     -3.800939      0.507489
  C       0.739943     -3.923992      0.286910
  C       0.012722     -2.849599     -0.227394
  C       0.674783      1.206794     -1.001786
  C       1.014386      2.022365     -2.089141
  C       1.745489      3.203813     -1.931317
  C       2.153478      3.592127     -0.654568
  C       1.836233      2.798509      0.452029
  C       1.106180      1.624325      0.266040
  F       0.842350      0.892433      1.346471
  F       2.234370      3.168834      1.665848
  F       2.845706      4.711178     -0.489626
  F       2.052122      3.957287     -2.983202
  F       0.645088      1.693550     -3.325484
  H      -4.812078      0.741291      2.167959
  H      -4.786227      1.539189     -0.197535
  H      -2.840602      1.031109     -1.657755
  H      -0.913242     -1.014898      1.618178
  H      -2.872397     -0.546462      3.061342
  H       2.545271     -0.582677     -0.525943
  H       3.831139     -2.490825      0.372912
  H       2.686262     -4.642525      0.907885
  H       0.229617     -4.863921      0.512522
  H      -1.060897     -2.962039     -0.402089
34
Coordinates from ORCA-job data/geom_opt/300563/300563 E -1530.898852177159
  C      -3.950370      0.528438      1.530079
  C      -3.936387      0.979760      0.207291
  C      -2.841022      0.699573     -0.613109
  C      -1.736937     -0.014094     -0.116178
  C      -1.760565     -0.464193      1.213088
  C      -2.863320     -0.197361      2.027453
  P      -0.358657     -0.306270     -1.318354
  C       0.643591     -1.624195     -0.512518
  C       2.025028     -1.514346     -0.293563
  C       2.753454     -2.594330      0.212781
  C       2.113686     -3.800371      0.508218
  C       0.738792     -3.924348      0.282995
  C       0.012170     -2.849901     -0.231969
  C       0.674536      1.207558     -1.002328
  C       1.017554      2.020453     -2.090801
  C       1.748945      3.201829     -1.934088
  C       2.154335      3.592800     -0.657272
  C       1.833813      2.801911      0.450280
  C       1.103402      1.627745      0.265240
  F       0.837022      0.898415      1.346892
  F       2.229353      3.174549      1.664246
  F       2.847062      4.711672     -0.493270
  F       2.058564      3.952619     -2.987004
  F       0.651355      1.688999     -3.327451
  H      -4.809726      0.737722      2.172173
  H      -4.785408      1.540927     -0.191318
  H      -2.841510      1.035402     -1.654421
  H      -0.912322     -1.019271      1.615036
  H      -2.869755     -0.553027      3.061076
  H       2.543567     -0.580213     -0.518819
  H       3.828233     -2.488360      0.381194
  H       2.683684     -4.642015      0.909166
  H       0.228648     -4.865083      0.505480
  H      -1.060813     -2.962996     -0.410224
34
Coordinates from ORCA-job data/geom_opt/300563/300563 E -1530.898852177831
  C      -3.950859      0.527325      1.528979
  C      -3.938385      0.976047      0.205356
  C      -2.842735      0.696623     -0.614994
  C      -1.737046     -0.013791     -0.117193
  C      -1.759158     -0.461408      1.213027
  C      -2.862071     -0.195231      2.027334
  P      -0.358034     -0.305513     -1.318790
  C       0.643513     -1.623889     -0.512710
  C       2.025327     -1.515251     -0.295476
  C       2.753263     -2.595493      0.211033
  C       2.112638     -3.800613      0.508317
  C       0.737383     -3.923396      0.284759
  C       0.011209     -2.848707     -0.230326
  C       0.675430      1.207976     -1.001584
  C       1.017318      2.021997     -2.089667
  C       1.748701      3.203311     -1.932670
  C       2.155377      3.593207     -0.655896
  C       1.835996      2.801280      0.451182
  C       1.105463      1.627212      0.265777
  F       0.840030      0.897121      1.347219
  F       2.232542      3.172786      1.665180
  F       2.848113      4.712039     -0.491572
  F       2.057087      3.955123     -2.985216
  F       0.649859      1.691814     -3.326322
  H      -4.810407      0.736105      2.170976
  H      -4.788734      1.534628     -0.194039
  H      -2.844359      1.030508     -1.656914
  H      -0.909662     -1.014085      1.615585
  H      -2.867296     -0.548875      3.061657
  H       2.544526     -0.581823     -0.522154
  H       3.828332     -2.490361      0.378111
  H       2.682206     -4.642453      0.909456
  H       0.226535     -4.863399      0.508709
  H      -1.062101     -2.960815     -0.407134
