! RI BP86 def2-SVP D3BJ TIGHTSCF Opt
%pal
nprocs 6
end

* xyz 0 1
C      0.759828   -2.320581    1.659910
C     -0.119300   -1.695805    0.544152
C     -1.539618   -2.210560    0.862672
C      0.304118   -2.308257   -0.796648
P     -0.033059    0.173500    0.614805
O     -0.111271    0.583972    2.069339
C      1.593622    0.801114   -0.068378
C      2.788460   -0.011855    0.474921
C      1.869706    2.244060    0.431435
C      1.691223    0.798980   -1.598932
C     -1.485053    0.951005   -0.276222
C     -1.777121    0.364025   -1.662684
C     -1.296772    2.473954   -0.446248
C     -2.773214    0.830569    0.580670
H      0.616076   -3.406162    1.721651
H      1.824695   -2.166693    1.496994
H      0.511978   -1.898015    2.639159
H     -1.553589   -3.298015    1.005829
H     -1.922610   -1.754740    1.781366
H     -2.238396   -2.007786    0.050330
H      0.133019   -3.391326   -0.809135
H      1.366172   -2.159768   -0.997212
H     -0.250251   -1.882263   -1.633805
H      3.746369    0.462924    0.229475
H      2.736775   -0.099838    1.564894
H      2.831718   -1.011817    0.041895
H      1.184087    2.977063    0.010958
H      2.877330    2.577330    0.154689
H      1.789076    2.305069    1.521709
H      2.698361    1.076734   -1.932090
H      1.468381   -0.181611   -2.021319
H      1.005568    1.515399   -2.053744
H     -2.121357   -0.669627   -1.605267
H     -0.897517    0.381249   -2.307377
H     -2.567126    0.927730   -2.173171
H     -2.216423    2.959174   -0.795602
H     -1.021234    2.941302    0.504603
H     -0.534325    2.709976   -1.189400
H     -3.601784    1.397622    0.139211
H     -2.610423    1.216514    1.592335
H     -3.126120   -0.194549    0.674233
*