41
Coordinates from ORCA-job data/geom_opt_PO_BP86/83681/83681 E -889.728257486281
  C           0.74948959543506     -2.27525898035753      1.69658070329841
  C          -0.11078066680139     -1.73836571056488      0.52945165047704
  C          -1.55803316229346     -2.19319286318913      0.81463266274594
  C           0.35327339955579     -2.32829868884399     -0.81324815154462
  P          -0.03316377753842      0.18202693537379      0.63991622187515
  O          -0.11035223631425      0.59696712920306      2.11043616754914
  C           1.62447798121601      0.81908923967473     -0.09888971961816
  C           2.77479167015178     -0.05066941072629      0.45236688082746
  C           1.84058472979402      2.23780917944795      0.47748148024854
  C           1.68520517493302      0.83567204960097     -1.63557703233698
  C          -1.51961338765564      0.95595858505852     -0.30364057488665
  C          -1.81465485694676      0.32603000992627     -1.67529811072951
  C          -1.26173559925139      2.46807299562709     -0.47628323477187
  C          -2.74094784129134      0.83225835690425      0.63730308245034
  H           0.52075941500542     -3.35145950408579      1.84791270600588
  H           1.83367622113442     -2.18960738959942      1.50922870212478
  H           0.51328050768423     -1.72422679725792      2.62778480501780
  H          -1.56598224524460     -3.29888686672772      0.92187337050265
  H          -1.93754976935017     -1.76046051935143      1.76052311767434
  H          -2.25992375305243     -1.93928316365583     -0.00151648466432
  H           0.23402099317395     -3.43324505022412     -0.78721504398919
  H           1.42134009082132     -2.12406562445984     -1.01877171388914
  H          -0.24012219125461     -1.95405294617774     -1.66965024775655
  H           3.74038776066873      0.42562898048319      0.17916119770072
  H           2.73207285027355     -0.11866632753858      1.55666297162906
  H           2.78406608823881     -1.07320765503688      0.03104555454603
  H           1.20300601644733      3.00068259933506     -0.00159174842404
  H           2.89786770117532      2.53591115188872      0.31389281105213
  H           1.63119358214139      2.24289617554208      1.56502288110469
  H           2.69069892629706      1.18320951459378     -1.95803717438355
  H           1.52683974788286     -0.16617825761035     -2.07867563372115
  H           0.94639276818031      1.52870889251417     -2.08127767781228
  H          -2.10249753790256     -0.73994110805120     -1.59914380962042
  H          -0.95733094823147      0.40065114666289     -2.37177536419513
  H          -2.66884076746348      0.85908242171249     -2.14667072193572
  H          -2.19444929800503      2.94589525362440     -0.84466826129672
  H          -0.99877856814266      2.94261027626543      0.48885323124386
  H          -0.46791044810563      2.69171685130036     -1.21346207477010
  H          -3.55122725846618      1.49369556986609      0.26397387470518
  H          -2.46364033277084      1.14745348621277      1.66206276420802
  H          -3.14589157412806     -0.19296293735942      0.68922694335894
