46
Coordinates from ORCA-job data/geom_opt/70071/70071 E -1378.448070260142
  C           4.76276905647142     -3.54665653007351     -1.11256767246775
  O           3.91951833677397     -3.85860131513591     -0.02799243266238
  C           3.04107912269514     -2.92302083705002      0.41139067911866
  C           2.23939829625236     -3.29025964414937      1.50718687982224
  C           1.31874655346473     -2.39109663208756      2.03048808450726
  C           1.14956967889725     -1.10819214730935      1.47261310996715
  C           1.95495842666947     -0.75522261620289      0.38332550791560
  C           2.89659152809474     -1.64495935977104     -0.14746221083271
  P          -0.11824017698920     -0.00252305601837      2.23324862500449
  C          -1.63700461577576     -0.50697551023844      1.31296986812275
  C          -1.63700691659808     -1.32629695202916      0.17789470925485
  C          -2.82670096146944     -1.66922166423396     -0.47561046999995
  C          -4.05115448248360     -1.18194353347043      0.00389645422388
  C          -4.06587731106299     -0.35898936685158      1.14443771688841
  C          -2.87781505584020     -0.03881183404624      1.78938543215436
  O          -5.25722997428185     -1.45128264512716     -0.55542705350357
  C          -5.31223112474691     -2.28090529203728     -1.69264857007744
  C           0.27568172308630      1.60961309793111      1.42402095484434
  C           1.26503289266399      2.41704480889196      2.02006544617004
  C           1.63069133488631      3.63754133666022      1.46645514797263
  C           0.99766271740997      4.10201392643735      0.29943824820408
  C           0.00026869029976      3.31870245744476     -0.29898346923914
  C          -0.34733061699803      2.08476055306537      0.26385425196933
  O           1.41003735577013      5.30776285773762     -0.16557896459932
  C           0.80445338237792      5.83688474731072     -1.32213056593079
  H           4.18730147569928     -3.32276025431866     -2.02943429100251
  H           5.41756158976875     -2.68486279546055     -0.88869115678520
  H           5.38690638392550     -4.43270605417695     -1.29081842546539
  H           2.37004525527644     -4.28653253217245      1.93467245510030
  H           0.71168598034112     -2.68767536312412      2.89106315178043
  H           1.85119515216719      0.23346385246810     -0.06848858991083
  H           3.50625863998602     -1.32920826649730     -0.99423216431880
  H          -0.69196372762751     -1.70891393751533     -0.21297862542849
  H          -2.78286121798189     -2.31338965002069     -1.35398517882512
  H          -5.02871489710806      0.00542232837019      1.50847414255017
  H          -2.90765046672490      0.59199029187366      2.68282789971563
  H          -6.37191944297428     -2.36649928339189     -1.96859951530532
  H          -4.91255340050951     -3.29015929563082     -1.48456568557237
  H          -4.75360587458407     -1.84957301899239     -2.54342083889868
  H           1.75815051707782      2.07578131161417      2.93516022632716
  H           2.39980813996751      4.26374259764063      1.92327576989944
  H          -0.51220760304628      3.65363253728214     -1.20095589886736
  H          -1.12158001383124      1.48492071170833     -0.21886305043599
  H          -0.28148902942968      5.98950126995746     -1.18398650559224
  H           0.95922736311567      5.18571218493624     -2.20188146125114
  H           1.28053931692474      6.80874951580338     -1.50988896454070
