31
Coordinates from ORCA-job data/geom_opt/75226/75226 E -696.347140553779
  C          -0.58417079507391      4.03158831171241     -0.56966099916102
  C          -0.26666735430211      2.83187302504023      0.32351577854213
  C          -0.62215675273416      1.49161488292328     -0.32727580936282
  P          -0.30848210863787      0.01178357862966      0.77444425759125
  C          -0.87256658593971     -1.34518939668322     -0.38396647309873
  C          -2.39425053032018     -1.50986051342914     -0.44476665199050
  C          -2.83418329807646     -2.66277243131112     -1.34769021234591
  C           1.54140232202241     -0.14551996101975      0.54075295402555
  C           2.16570867933386     -1.30366227881008      1.32500316583075
  C           3.68463579744458     -1.38085342093130      1.16755830701407
  H          -0.32216909115292      4.98281141932051     -0.07861491989605
  H          -0.02687088064297      3.98081278901841     -1.52030002587748
  H          -1.65797543714163      4.06788859407416     -0.81957669955793
  H           0.80649375717194      2.84564413981663      0.58445212908035
  H          -0.80926664525468      2.92350322864078      1.28075344216445
  H          -1.69764631567420      1.47965349253825     -0.57630002183477
  H          -0.07737354463459      1.36778011234994     -1.28186909483135
  H          -0.46069409647008     -1.16759758404469     -1.39503126866390
  H          -0.41768827236156     -2.28294926495473     -0.01990994283407
  H          -2.85644061722359     -0.57187090706132     -0.80051092928270
  H          -2.78160687987788     -1.66619151020675      0.57733571226274
  H          -3.93162039651665     -2.76061780614832     -1.37370704641690
  H          -2.48637617034038     -2.51383557755149     -2.38383247255045
  H          -2.42030332906034     -3.62303049554438     -0.99635794795300
  H           1.77523851032103     -0.23590718109647     -0.53660814232245
  H           1.98563696849218      0.80688430842429      0.87927685416013
  H           1.90462173192229     -1.19908486223565      2.39275243462426
  H           1.71686934599980     -2.25863080679993      0.99863220849307
  H           4.16882020911735     -0.45512505468276      1.52171045573584
  H           4.10896851860260     -2.22105678734965      1.74080978085145
  H           3.97011326100783     -1.51808104262781      0.11094317760398
