! RIJONX B3LYP def2-SVP D3BJ TIGHTSCF Opt
%pal
nprocs 6
end

* xyz 0 1
C      2.881618    0.060742    1.003614
C      1.966676    0.210064    2.041579
C      0.596015    0.206913    1.771323
C      0.120404    0.054480    0.459860
C      1.054475   -0.094707   -0.573616
C      2.425998   -0.091546   -0.303120
P     -1.677755    0.061692    0.196624
C     -1.882751    1.310487   -1.140338
O     -1.564952    2.648533   -0.779291
C     -1.944404   -1.466064   -0.795261
O     -1.683439   -2.687681   -0.116092
H      3.948349    0.063039    1.212697
H      2.317573    0.329297    3.063636
H     -0.097447    0.325641    2.602709
H      0.739826   -0.216147   -1.606948
H      3.139428   -0.208342   -1.115386
H     -2.926992    1.307450   -1.468541
H     -1.276860    1.057140   -2.015534
H     -0.850646    2.575285   -0.122326
H     -2.989283   -1.497777   -1.119898
H     -1.332782   -1.461282   -1.702539
H     -0.963051   -2.487219    0.506850
*