22
Coordinates from ORCA-job data/geom_opt/201037/201037 E -802.514134674117
  C       2.881618      0.060742      1.003614
  C       1.966676      0.210064      2.041579
  C       0.596015      0.206913      1.771323
  C       0.120404      0.054480      0.459860
  C       1.054475     -0.094707     -0.573616
  C       2.425998     -0.091546     -0.303120
  P      -1.677755      0.061692      0.196624
  C      -1.882751      1.310487     -1.140338
  O      -1.564952      2.648533     -0.779291
  C      -1.944404     -1.466064     -0.795261
  O      -1.683439     -2.687681     -0.116092
  H       3.948349      0.063039      1.212697
  H       2.317573      0.329297      3.063636
  H      -0.097447      0.325641      2.602709
  H       0.739826     -0.216147     -1.606948
  H       3.139428     -0.208342     -1.115386
  H      -2.926992      1.307450     -1.468541
  H      -1.276860      1.057140     -2.015534
  H      -0.850646      2.575285     -0.122326
  H      -2.989283     -1.497777     -1.119898
  H      -1.332782     -1.461282     -1.702539
  H      -0.963051     -2.487219      0.506850
22
Coordinates from ORCA-job data/geom_opt/201037/201037 E -802.518880918901
  C       2.863940      0.060641      1.000706
  C       1.952595      0.208382      2.048574
  C       0.578696      0.206745      1.786164
  C       0.095043      0.057431      0.474912
  C       1.025809     -0.090245     -0.568931
  C       2.398730     -0.088680     -0.309096
  P      -1.719927      0.067288      0.224268
  C      -1.871075      1.305860     -1.146537
  O      -1.505980      2.626498     -0.769035
  C      -1.935150     -1.463904     -0.798127
  O      -1.624806     -2.665000     -0.104626
  H       3.937907      0.061822      1.204022
  H       2.310645      0.325454      3.074423
  H      -0.121137      0.323493      2.618149
  H       0.694054     -0.208973     -1.604105
  H       3.109071     -0.204388     -1.131781
  H      -2.927727      1.332920     -1.462915
  H      -1.280208      0.998164     -2.035118
  H      -0.768109      2.550027     -0.147109
  H      -2.994416     -1.521775     -1.101343
  H      -1.338764     -1.411955     -1.733524
  H      -0.879191     -2.469806      0.481029
22
Coordinates from ORCA-job data/geom_opt/201037/201037 E -802.521289546538
  C       2.844252      0.061258      1.004198
  C       1.935056      0.206010      2.056482
  C       0.559828      0.205591      1.796917
  C       0.072012      0.060392      0.485867
  C       1.001974     -0.084685     -0.562762
  C       2.374220     -0.084189     -0.307931
  P      -1.763231      0.072134      0.242797
  C      -1.866750      1.315502     -1.153247
  O      -1.437026      2.601479     -0.757603
  C      -1.932646     -1.475420     -0.797592
  O      -1.557127     -2.639162     -0.090792
  H       3.920126      0.061538      1.204315
  H       2.295712      0.319877      3.083236
  H      -0.148991      0.319319      2.623248
  H       0.656958     -0.199620     -1.595230
  H       3.081831     -0.197578     -1.134889
  H      -2.931028      1.389513     -1.443367
  H      -1.315088      0.957758     -2.053532
  H      -0.651829      2.503712     -0.202836
  H      -3.001542     -1.571814     -1.063165
  H      -1.373513     -1.380559     -1.757467
  H      -0.763199     -2.441056      0.423355
22
Coordinates from ORCA-job data/geom_opt/201037/201037 E -802.522403259059
  C       2.825584      0.062297      1.013457
  C       1.916307      0.204326      2.065443
  C       0.541358      0.204740      1.804843
  C       0.054134      0.062985      0.493448
  C       0.984655     -0.079525     -0.555244
  C       2.356127     -0.079724     -0.299571
  P      -1.791695      0.074932      0.249464
  C      -1.871176      1.333353     -1.152545
  O      -1.369010      2.584734     -0.755950
  C      -1.937130     -1.492369     -0.789069
  O      -1.490295     -2.624044     -0.085524
  H       3.901068      0.061922      1.213648
  H       2.276332      0.315436      3.092384
  H      -0.173603      0.316088      2.625830
  H       0.634399     -0.191725     -1.585842
  H       3.063907     -0.191062     -1.126262
  H      -2.938817      1.460441     -1.407414
  H      -1.369502      0.941876     -2.066841
  H      -0.532553      2.451354     -0.289810
  H      -3.011145     -1.630824     -1.009019
  H      -1.424060     -1.369528     -1.770261
  H      -0.644885     -2.415684      0.334839
22
Coordinates from ORCA-job data/geom_opt/201037/201037 E -802.523124169026
  C       2.801360      0.062910      1.022207
  C       1.893500      0.198145      2.075386
  C       0.518752      0.200636      1.816447
  C       0.030843      0.067268      0.505038
  C       0.959510     -0.068621     -0.545343
  C       2.331576     -0.070440     -0.290310
  P      -1.820080      0.080273      0.257611
  C      -1.871385      1.352682     -1.148122
  O      -1.293134      2.567766     -0.760621
  C      -1.941125     -1.510185     -0.769190
  O      -1.416413     -2.608041     -0.076178
  H       3.876244      0.061184      1.220952
  H       2.254629      0.302572      3.101846
  H      -0.198409      0.306911      2.635241
  H       0.604544     -0.174050     -1.574520
  H       3.038771     -0.176344     -1.117305
  H      -2.934951      1.540087     -1.372756
  H      -1.417567      0.929877     -2.071106
  H      -0.407042      2.391070     -0.413632
  H      -3.014061     -1.700059     -0.941290
  H      -1.476099     -1.364262     -1.768732
  H      -0.519463     -2.389380      0.214379
22
Coordinates from ORCA-job data/geom_opt/201037/201037 E -802.523326173702
  C       2.794127      0.062043      1.022748
  C       1.887826      0.197647      2.077126
  C       0.512977      0.201670      1.820966
  C       0.023003      0.069477      0.510609
  C       0.949389     -0.067944     -0.541083
  C       2.322826     -0.070778     -0.288047
  P      -1.825753      0.081429      0.261098
  C      -1.872773      1.360143     -1.141653
  O      -1.284201      2.571561     -0.755946
  C      -1.938577     -1.514682     -0.761517
  O      -1.405273     -2.609601     -0.069198
  H       3.868996      0.059328      1.219824
  H       2.250944      0.301298      3.102656
  H      -0.201401      0.308441      2.641603
  H       0.593701     -0.174173     -1.569699
  H       3.028863     -0.177496     -1.115576
  H      -2.932965      1.560057     -1.366577
  H      -1.420948      0.935051     -2.063407
  H      -0.380074      2.388040     -0.462047
  H      -3.007934     -1.717462     -0.934750
  H      -1.471355     -1.365403     -1.758478
  H      -0.491395     -2.398649      0.171350
22
Coordinates from ORCA-job data/geom_opt/201037/201037 E -802.523408555668
  C       2.792564      0.060965      1.021842
  C       1.887490      0.195232      2.077726
  C       0.512403      0.200613      1.824096
  C       0.020048      0.070738      0.514552
  C       0.944767     -0.064742     -0.538631
  C       2.319353     -0.068922     -0.287877
  P      -1.824603      0.083008      0.264187
  C      -1.873218      1.357791     -1.138985
  O      -1.289677      2.575270     -0.755913
  C      -1.938627     -1.511638     -0.756509
  O      -1.410743     -2.611277     -0.062702
  H       3.867688      0.057328      1.217518
  H       2.252472      0.296663      3.102844
  H      -0.198049      0.306496      2.648219
  H       0.590446     -0.168815     -1.567861
  H       3.024092     -0.174289     -1.116661
  H      -2.931304      1.557380     -1.372741
  H      -1.411582      0.934254     -2.056335
  H      -0.377622      2.394544     -0.485428
  H      -3.005722     -1.717019     -0.938795
  H      -1.460806     -1.364743     -1.748507
  H      -0.489369     -2.408838      0.155962
22
Coordinates from ORCA-job data/geom_opt/201037/201037 E -802.523424782410
  C       2.794479      0.060629      1.020890
  C       1.889629      0.194564      2.077232
  C       0.514435      0.200259      1.824296
  C       0.020958      0.071168      0.515100
  C       0.945470     -0.064312     -0.538403
  C       2.320344     -0.068725     -0.288655
  P      -1.822360      0.083377      0.265471
  C      -1.874131      1.354540     -1.138331
  O      -1.300154      2.577234     -0.753264
  C      -1.938374     -1.508146     -0.756592
  O      -1.421743     -2.611763     -0.058407
  H       3.869761      0.056720      1.216243
  H       2.255125      0.295574      3.102273
  H      -0.194421      0.306096      2.649857
  H       0.592372     -0.168258     -1.568163
  H       3.024446     -0.173991     -1.118139
  H      -2.931853      1.548632     -1.378739
  H      -1.404244      0.934471     -2.053267
  H      -0.385854      2.402894     -0.486396
  H      -3.004569     -1.709819     -0.948629
  H      -1.450520     -1.364498     -1.744379
  H      -0.498796     -2.416649      0.160005
22
Coordinates from ORCA-job data/geom_opt/201037/201037 E -802.523428540076
  C       2.796087      0.060491      1.021118
  C       1.890857      0.192920      2.077390
  C       0.515694      0.198864      1.824034
  C       0.022198      0.071352      0.514662
  C       0.947250     -0.062392     -0.538683
  C       2.321982     -0.067049     -0.288833
  P      -1.821073      0.084066      0.265673
  C      -1.874587      1.352298     -1.139317
  O      -1.304499      2.577018     -0.753423
  C      -1.939555     -1.506400     -0.755960
  O      -1.427238     -2.610679     -0.054868
  H       3.871363      0.056445      1.216816
  H       2.256021      0.292612      3.102736
  H      -0.193051      0.303641      2.649924
  H       0.595233     -0.164831     -1.569028
  H       3.026032     -0.171032     -1.118584
  H      -2.932394      1.543790     -1.382012
  H      -1.402293      0.933388     -2.053699
  H      -0.389375      2.406005     -0.487478
  H      -3.005787     -1.706121     -0.950559
  H      -1.449314     -1.365357     -1.743087
  H      -0.503554     -2.419033      0.163179
22
Coordinates from ORCA-job data/geom_opt/201037/201037 E -802.523429188283
  C       2.796768      0.060403      1.021209
  C       1.891236      0.191981      2.077304
  C       0.516124      0.198091      1.823515
  C       0.022907      0.071609      0.513947
  C       0.948308     -0.061506     -0.539155
  C       2.322902     -0.066237     -0.289005
  P      -1.820658      0.084402      0.265363
  C      -1.874901      1.352049     -1.139792
  O      -1.306300      2.577206     -0.753146
  C      -1.939646     -1.506223     -0.755577
  O      -1.429667     -2.610273     -0.052464
  H       3.871982      0.056263      1.217220
  H       2.256035      0.290937      3.102852
  H      -0.192925      0.302286      2.649234
  H       0.596687     -0.163418     -1.569721
  H       3.027038     -0.169653     -1.118749
  H      -2.932851      1.542429     -1.382851
  H      -1.402345      0.933923     -2.054408
  H      -0.390753      2.407678     -0.487808
  H      -3.005871     -1.704846     -0.951489
  H      -1.448323     -1.366778     -1.742413
  H      -0.505745     -2.420326      0.165936
