26
Coordinates from ORCA-job data/geom_opt_P_BP86/74149/74149 E -731.141657750175
  C          -1.67761510825105     -2.55320756382049     -0.47431832275295
  C          -2.09502072063212     -1.09511964775154     -0.26022703889824
  P          -1.04953791434264     -0.23690230319210      1.04387644150638
  C          -1.60708624114875      1.53570917338801      0.75443436518281
  C          -0.75522128004325      2.54508028642964      1.52935741111323
  C           0.59414473358824     -0.18527410616849      0.17321832123844
  C           0.74635541946494      0.20707602025291     -1.17483729317525
  C           2.01464077277750      0.24038253964908     -1.77379528318626
  C           3.15449336691680     -0.11662894078312     -1.03095411981353
  C           3.01790835365639     -0.50795939666729      0.31044228544933
  C           1.74499785434586     -0.54342383845271      0.90578591714484
  H          -2.34536792583898     -3.06207869626000     -1.19974442106087
  H          -1.70939213125029     -3.12577328503821      0.47567334913047
  H          -0.64205423060437     -2.61816371543601     -0.86709635703184
  H          -2.06249514467995     -0.52782406164437     -1.21688465227007
  H          -3.14376845564518     -1.03560304697649      0.10455975998562
  H          -2.66913013289544      1.58285375706683      1.08092784507302
  H          -1.59740611458724      1.76254599994049     -0.33482118086756
  H          -0.76424926208509      2.33012381709206      2.61799096259390
  H          -1.12561772348137      3.58097075447356      1.38501001538435
  H           0.30176192422658      2.51566410167376      1.19322884928720
  H          -0.13722211050815      0.49211349537295     -1.76869377540004
  H           2.11685643951599      0.54756454242545     -2.82643729932658
  H           4.14979505974567     -0.08960389466042     -1.50086303521097
  H           3.90645550897420     -0.78917918784097      0.89681420087745
  H           1.63377406278170     -0.85334380307251      1.95735505502713
