39
Coordinates from ORCA-job data/geom_opt_PO_BP86/11437688/11437688 E -1188.358876424568
  C           5.43890353409871     -1.32893801140938      1.88448430792332
  C           4.94418018312355     -1.23335955830447      0.63129715680536
  C           3.54210790826036     -1.01185810641057      0.24084040753926
  C           3.21509332615402     -0.93689806163391     -1.13492933229482
  C           1.89807084525417     -0.72592275136701     -1.56010939623901
  C           0.86832986095211     -0.57677751457018     -0.61080496186187
  C           1.17327925984189     -0.66892139038685      0.76433261761033
  C           2.49128189768705     -0.87878330340949      1.18205595456208
  P          -0.81415688388139     -0.27284128482634     -1.26338807532498
  O          -1.02292313703972     -0.83194591796079     -2.66075859993318
  C          -1.95515201764348     -0.98683385957094     -0.02030191771894
  C          -2.35710536433063     -0.30878584264424      1.14787702662996
  C          -3.21729949924721     -0.93963746189415      2.06159247296911
  C          -3.68297717955610     -2.24093079558164      1.80650647646845
  C          -3.29589555430355     -2.91091171043093      0.63248707584020
  C          -2.43570384659440     -2.28586397862587     -0.28291803134863
  C          -1.05758391328728      1.54066600992487     -1.16825302676542
  C          -1.91998246911102      2.10830683277676     -2.12808341930478
  C          -2.17592137014067      3.48773455085289     -2.10876660546329
  C          -1.56897631115551      4.30364411807795     -1.13781169932522
  C          -0.69598855543238      3.74148445747304     -0.19058406122973
  C          -0.43472929419477      2.36156980757695     -0.20663293077939
  H           4.80267513425798     -1.24576660683618      2.78004860657854
  H           6.51260688549519     -1.49603686138879      2.05675800368736
  H           5.64720371158642     -1.32721355712395     -0.21538398304069
  H           4.01724264022446     -1.05304348809404     -1.88119597264971
  H           1.64387538728904     -0.68703239688399     -2.63059704156514
  H           0.36948255352447     -0.59451819350688      1.51311653386144
  H           2.70843606184583     -0.95102437206840      2.25819828433575
  H          -2.01277205657003      0.72014598921724      1.33478432319932
  H          -3.53368539123105     -0.40890916614653      2.97271950765835
  H          -4.35998580076993     -2.73213840928402      2.52230249478383
  H          -3.67230874628678     -3.92479277737359      0.42665524769072
  H          -2.13530493808237     -2.78314011400511     -1.21824259103942
  H          -2.36824670535387      1.45317258051336     -2.89115470210693
  H          -2.84843859491259      3.93111621660992     -2.85918753897879
  H          -1.76931867883784      5.38609750006944     -1.12548032701233
  H          -0.20757392035574      4.38280730644971      0.55913326123218
  H           0.26925903872306      1.92607812219608      0.51939345460671
