43
Coordinates from ORCA-job data/geom_opt_PO_BP86/3333592/3333592 E -1244.897233547923
  C           5.46504692893888     -0.22146735636307      0.87266449680858
  N           4.50182754235127      0.21400155328277     -0.12164591798892
  C           4.96041578754006      0.71543972223349     -1.40345015994396
  C           3.15052168698782      0.19148113773872      0.16819988790977
  C           2.67285802351936     -0.26742837900411      1.43194396041595
  C           1.30634766397230     -0.29539819309318      1.71506549933801
  C           0.35612558776437      0.12581397702920      0.76093342647003
  C           0.81815692508686      0.60371618361595     -0.48241305523642
  C           2.18338121318279      0.63634516410446     -0.78092060069242
  P          -1.39729473260124      0.01276241445262      1.22633166528690
  O          -1.64231463305752      0.10734246060248      2.72393122242521
  C          -2.24333016433971      1.33523507652636      0.27655514191130
  C          -2.65999219712749      1.19215626291289     -1.06185375602106
  C          -3.27866747998361      2.26687082397205     -1.72200647766659
  C          -3.49075230888557      3.48039941500937     -1.04575080526260
  C          -3.09177911047366      3.61791028016087      0.29559940761321
  C          -2.47198630861689      2.54771295287916      0.95834633045640
  C          -2.01875559867931     -1.55541769908248      0.50454416123015
  C          -1.45799939938798     -2.15556272437433     -0.64024843836665
  C          -2.00448082406361     -3.34716868654718     -1.14517929438847
  C          -3.10243449043104     -3.94528732741342     -0.50336024293354
  C          -3.65088359602622     -3.35656220517675      0.64989029112612
  C          -3.10975258916715     -2.16516198846457      1.15642584614809
  H           5.43278067526001      0.40255925728030      1.79516334789702
  H           6.48376062189214     -0.14880283304189      0.45062927575042
  H           5.29907400951379     -1.27915321521239      1.17798223924391
  H           4.68294689794440      1.78270503322530     -1.56334246311278
  H           6.06189563003096      0.64137088814818     -1.45261001576030
  H           4.54297758604813      0.13010614031347     -2.25386162451859
  H           3.37879879340635     -0.59799343589400      2.20454401272601
  H           0.95236619080227     -0.63479530782651      2.70104515610431
  H           0.10016989733815      0.97510735552504     -1.23025786973341
  H           2.50039460790573      1.02277740354539     -1.75793435577866
  H          -2.51838439161500      0.23343400070392     -1.58474379561526
  H          -3.60577283108438      2.15276559402145     -2.76710156738714
  H          -3.97930316695650      4.32013648645699     -1.56380273828777
  H          -3.27121978162493      4.56387313076288      0.82968927828982
  H          -2.16953177228981      2.62611583959864      2.01428013946665
  H          -0.58151816877456     -1.69909330988316     -1.12624034942366
  H          -1.56495525543442     -3.81685147195804     -2.03877689649064
  H          -3.52685179322887     -4.88133858202897     -0.89824553396133
  H          -4.50185492410098     -3.83333519772443      1.16063303340565
  H          -3.51003375153520     -1.69732064101346      2.06935313854665
