! RI BP86 def2-SVP D3BJ TIGHTSCF Opt
%pal
nprocs 6
end

* xyz 0 1
C     -2.979569   -2.691949    1.838774
C     -1.988614   -2.770265    0.714748
C     -1.456510   -1.599308    0.156891
C     -0.555112   -1.656859   -0.917630
C     -0.204883   -2.911430   -1.438072
C     -0.740551   -4.079585   -0.898741
C     -1.631790   -4.008879    0.170819
P      0.180558   -0.180852   -1.649329
O      0.345595   -0.346254   -3.151844
C      1.775826    0.101080   -0.855079
C      2.737962    0.865644   -1.531230
C      3.980717    1.117533   -0.952855
C      4.276972    0.610469    0.311421
C      3.330370   -0.145891    1.010847
C      2.088129   -0.406881    0.415700
C      3.664314   -0.726195    2.353708
C     -0.888090    1.222770   -1.271160
C     -1.975016    1.487643   -2.117265
C     -2.833031    2.555230   -1.859442
C     -2.617212    3.370844   -0.749727
C     -1.546493    3.120988    0.115410
C     -0.679669    2.053927   -0.159328
C     -1.290067    4.023559    1.286376
H     -2.773090   -1.829388    2.481118
H     -3.993589   -2.600738    1.437612
H     -2.927276   -3.585700    2.469374
H     -1.752833   -0.637085    0.568593
H      0.485167   -2.972660   -2.278622
H     -0.468058   -5.045026   -1.317552
H     -2.050265   -4.928087    0.574922
H      2.515082    1.258194   -2.522527
H      4.720914    1.703701   -1.491600
H      5.254772    0.806044    0.746188
H      1.362673   -1.013256    0.953476
H      4.378696   -0.090874    2.887760
H      4.099012   -1.723117    2.232624
H      2.768441   -0.803145    2.978797
H     -2.144379    0.858448   -2.990119
H     -3.666217    2.755237   -2.528418
H     -3.288664    4.206902   -0.566636
H      0.164127    1.875803    0.503588
H     -0.620105    4.837099    0.991763
H     -2.224976    4.453035    1.661456
H     -0.833267    3.469274    2.113026
*