! RIJONX B3LYP def2-SVP D3BJ TIGHTSCF Opt
%pal
nprocs 6
end

* xyz 0 1
C     -2.286744   -0.828031   -0.955374
P     -1.554620   -0.530040    0.699619
C     -2.106181    1.196557    0.979709
C      0.207234   -0.312296    0.307404
C      0.675464    0.578137   -0.667905
C      2.043938    0.702915   -0.926149
C      2.962990   -0.061494   -0.212141
C      2.514525   -0.950893    0.760243
C      1.146475   -1.074825    1.017561
H     -3.374958   -0.908953   -0.872489
H     -2.067044   -0.026141   -1.665760
H     -1.914153   -1.767431   -1.374953
H     -1.899710    1.850122    0.127554
H     -3.185228    1.218423    1.160839
H     -1.612244    1.617769    1.860590
H     -0.014201    1.189569   -1.243264
H      2.390456    1.398357   -1.686091
H      4.026477    0.035582   -0.412944
H      3.226816   -1.550290    1.320898
H      0.820708   -1.777038    1.782651
*