52
Coordinates from ORCA-job data/geom_opt/75806/75806 E -1046.101911244907
  C      -3.937703     -2.393980     -0.714327
  C      -2.570580     -3.034328     -0.915380
  C      -1.519776     -2.438077      0.021326
  C      -1.422891     -0.906120     -0.118741
  C      -2.818338     -0.286836      0.102065
  C      -3.862057     -0.878223     -0.843498
  P      -0.203779     -0.184225      1.081163
  C       0.108517      1.547290      0.503101
  C      -0.699972      2.544966      1.365435
  C      -0.891844      3.913769      0.702771
  C       0.257873      4.260433     -0.232135
  C       0.403070      3.235688     -1.358230
  C      -0.107458      1.839175     -0.983699
  C       1.381265     -1.084945      0.760674
  C       2.455499     -0.687494      1.791561
  C       3.729427     -1.515882      1.620478
  C       4.269019     -1.437379      0.196194
  C       3.204555     -1.814977     -0.829200
  C       1.939961     -0.971943     -0.659942
  H      -4.645570     -2.793517     -1.449129
  H      -4.323109     -2.658203      0.278099
  H      -2.642112     -4.114835     -0.746713
  H      -2.250774     -2.894822     -1.955493
  H      -1.764134     -2.713367      1.056026
  H      -0.559743     -2.911534     -0.211816
  H      -1.097786     -0.687124     -1.141471
  H      -2.798612      0.797873     -0.045538
  H      -3.146045     -0.449895      1.138037
  H      -3.612995     -0.608422     -1.877158
  H      -4.843688     -0.441719     -0.627054
  H       1.165921      1.745080      0.719515
  H      -0.175860      2.682570      2.321235
  H      -1.691907      2.155473      1.626574
  H      -0.998252      4.683598      1.475464
  H      -1.829962      3.912088      0.133310
  H       0.113740      5.259183     -0.659451
  H       1.190266      4.300791      0.345102
  H      -0.140321      3.580855     -2.246252
  H       1.459233      3.179062     -1.648668
  H       0.379607      1.106291     -1.632896
  H      -1.175038      1.790291     -1.228632
  H       1.159249     -2.142885      0.948870
  H       2.710978      0.375202      1.695652
  H       2.079823     -0.827953      2.813167
  H       4.493334     -1.165575      2.323810
  H       3.519251     -2.562422      1.873542
  H       5.134418     -2.101387      0.091900
  H       4.622172     -0.418184     -0.003645
  H       3.604326     -1.679085     -1.840484
  H       2.953341     -2.877602     -0.724498
  H       2.194913      0.068791     -0.890295
  H       1.200550     -1.295526     -1.400731
52
Coordinates from ORCA-job data/geom_opt/75806/75806 E -1046.106536699184
  C      -3.916033     -2.392299     -0.750250
  C      -2.533968     -3.023694     -0.934362
  C      -1.498669     -2.430177      0.030917
  C      -1.416864     -0.897173     -0.083027
  C      -2.814391     -0.281653      0.116156
  C      -3.845131     -0.867360     -0.857048
  P      -0.228762     -0.190858      1.168789
  C       0.090026      1.538114      0.544207
  C      -0.719742      2.557974      1.385457
  C      -0.899403      3.920149      0.681357
  C       0.281206      4.245445     -0.233694
  C       0.429427      3.196287     -1.353388
  C      -0.118087      1.809530     -0.953098
  C       1.363624     -1.079474      0.787791
  C       2.458483     -0.670112      1.789825
  C       3.738284     -1.496136      1.597909
  C       4.252639     -1.428959      0.156180
  C       3.164119     -1.821711     -0.847166
  C       1.892552     -0.982327     -0.651619
  H      -4.619131     -2.793306     -1.500006
  H      -4.315174     -2.670391      0.241742
  H      -2.594908     -4.115130     -0.786247
  H      -2.194555     -2.862502     -1.973375
  H      -1.759926     -2.713721      1.066251
  H      -0.519464     -2.888161     -0.182626
  H      -1.073041     -0.657265     -1.104525
  H      -2.783939      0.812302     -0.009962
  H      -3.149291     -0.463242      1.152422
  H      -3.574938     -0.583622     -1.890211
  H      -4.837190     -0.428215     -0.657458
  H       1.156455      1.723736      0.759835
  H      -0.203409      2.703432      2.348606
  H      -1.714979      2.160955      1.642558
  H      -1.029905      4.712253      1.436082
  H      -1.825750      3.908934      0.080077
  H       0.165034      5.249364     -0.673085
  H       1.204476      4.276667      0.371221
  H      -0.095940      3.537555     -2.261469
  H       1.494217      3.112177     -1.630357
  H       0.355438      1.043352     -1.581985
  H      -1.193975      1.770036     -1.189556
  H       1.144550     -2.142641      0.990519
  H       2.703408      0.400514      1.669124
  H       2.091693     -0.790929      2.822141
  H       4.518269     -1.140807      2.292261
  H       3.532952     -2.548939      1.862722
  H       5.131035     -2.085639      0.036913
  H       4.592304     -0.400074     -0.061551
  H       3.539855     -1.699439     -1.877430
  H       2.918322     -2.891748     -0.722454
  H       2.132504      0.067034     -0.891937
  H       1.125694     -1.308102     -1.373177
52
Coordinates from ORCA-job data/geom_opt/75806/75806 E -1046.107162307439
  C      -3.915920     -2.423310     -0.770422
  C      -2.528099     -3.049160     -0.950234
  C      -1.495975     -2.444099      0.013464
  C      -1.423411     -0.911619     -0.107028
  C      -2.823340     -0.298715      0.079357
  C      -3.851496     -0.896761     -0.891038
  P      -0.244434     -0.189573      1.160758
  C       0.067154      1.550612      0.514756
  C      -0.657299      2.581720      1.421513
  C      -0.836043      3.957676      0.739091
  C       0.317776      4.257578     -0.221958
  C       0.360189      3.226372     -1.373868
  C      -0.233078      1.859000     -0.962030
  C       1.366969     -1.072972      0.779407
  C       2.453252     -0.640963      1.781081
  C       3.735046     -1.472802      1.625471
  C       4.265651     -1.441203      0.186677
  C       3.185260     -1.862014     -0.817278
  C       1.912007     -1.015687     -0.657473
  H      -4.623406     -2.838862     -1.509828
  H      -4.308975     -2.691983      0.228824
  H      -2.578176     -4.142797     -0.803784
  H      -2.187948     -2.885108     -1.990640
  H      -1.759351     -2.715943      1.053612
  H      -0.509902     -2.894624     -0.186443
  H      -1.077677     -0.673830     -1.129036
  H      -2.788338      0.795724     -0.048482
  H      -3.153054     -0.476919      1.119758
  H      -3.575864     -0.623322     -1.927745
  H      -4.845999     -0.453809     -0.704651
  H       1.153296      1.696992      0.657708
  H      -0.081447      2.692556      2.355954
  H      -1.645121      2.198520      1.728670
  H      -0.918132      4.746318      1.506102
  H      -1.785888      3.978076      0.173582
  H       0.231611      5.279230     -0.629066
  H       1.267590      4.230071      0.343158
  H      -0.196065      3.609861     -2.247410
  H       1.403958      3.094496     -1.710658
  H       0.154614      1.077671     -1.629123
  H      -1.325464      1.873823     -1.113452
  H       1.144186     -2.132920      1.005752
  H       2.698539      0.427324      1.626515
  H       2.066698     -0.723562      2.811107
  H       4.507680     -1.107860      2.325306
  H       3.520632     -2.520569      1.910433
  H       5.152587     -2.092329      0.091077
  H       4.600794     -0.413732     -0.054096
  H       3.568668     -1.777458     -1.849801
  H       2.934480     -2.928617     -0.659490
  H       2.153870      0.030273     -0.915817
  H       1.147395     -1.350771     -1.378285
52
Coordinates from ORCA-job data/geom_opt/75806/75806 E -1046.106612723510
  C      -3.923813     -2.464497     -0.709015
  C      -2.522022     -3.026756     -0.977911
  C      -1.472977     -2.430025     -0.027535
  C      -1.462000     -0.892192     -0.073971
  C      -2.874831     -0.341476      0.193721
  C      -3.920193     -0.931598     -0.762206
  P      -0.263111     -0.181574      1.200473
  C       0.065377      1.573374      0.546599
  C      -0.813611      2.591078      1.325411
  C      -0.924463      3.949545      0.595658
  C       0.369105      4.268440     -0.162642
  C       0.608211      3.233026     -1.291532
  C      -0.027940      1.861785     -0.962140
  C       1.352008     -1.063873      0.768050
  C       2.458108     -0.624251      1.744826
  C       3.736156     -1.456976      1.574733
  C       4.238767     -1.434050      0.125423
  C       3.138776     -1.870042     -0.851995
  C       1.868164     -1.023472     -0.679471
  H      -4.652910     -2.878767     -1.427328
  H      -4.256291     -2.789071      0.296325
  H      -2.520458     -4.128145     -0.895082
  H      -2.233051     -2.790933     -2.020653
  H      -1.685738     -2.753071      1.010643
  H      -0.477001     -2.829067     -0.277462
  H      -1.166228     -0.590418     -1.093821
  H      -2.875818      0.758309      0.127693
  H      -3.147333     -0.586929      1.238038
  H      -3.691956     -0.604190     -1.795524
  H      -4.920961     -0.529057     -0.524891
  H       1.118233      1.748806      0.834116
  H      -0.389732      2.724421      2.335229
  H      -1.821056      2.167498      1.481956
  H      -1.165246      4.747140      1.319092
  H      -1.762635      3.928714     -0.124562
  H       0.342132      5.290629     -0.576415
  H       1.211113      4.251435      0.553432
  H       0.192059      3.603991     -2.244688
  H       1.692616      3.107961     -1.459858
  H       0.458979      1.074024     -1.552356
  H      -1.089147      1.857310     -1.259201
  H       1.124508     -2.120825      1.009545
  H       2.698326      0.442062      1.564770
  H       2.082420     -0.684249      2.780634
  H       4.520604     -1.095456      2.263108
  H       3.521641     -2.503402      1.866743
  H       5.132837     -2.072547      0.015275
  H       4.557339     -0.404284     -0.130559
  H       3.498210     -1.808909     -1.894426
  H       2.890084     -2.933689     -0.668894
  H       2.099079      0.023773     -0.947533
  H       1.085674     -1.359528     -1.379830
52
Coordinates from ORCA-job data/geom_opt/75806/75806 E -1046.107635265417
  C      -3.932384     -2.413725     -0.739036
  C      -2.550091     -3.045014     -0.931930
  C      -1.510636     -2.450480      0.027758
  C      -1.430713     -0.917806     -0.088137
  C      -2.827747     -0.298294      0.105249
  C      -3.861282     -0.888627     -0.861101
  P      -0.244823     -0.200401      1.184411
  C       0.065791      1.548731      0.539987
  C      -0.748558      2.568366      1.381033
  C      -0.897912      3.932634      0.674584
  C       0.329720      4.244976     -0.185348
  C       0.479262      3.211894     -1.325963
  C      -0.127462      1.840401     -0.956497
  C       1.371625     -1.071961      0.773212
  C       2.468453     -0.637280      1.763036
  C       3.750690     -1.460664      1.587099
  C       4.259601     -1.414651      0.142139
  C       3.168907     -1.841738     -0.846495
  C       1.894509     -1.004341     -0.669370
  H      -4.649901     -2.827468     -1.467677
  H      -4.315070     -2.678613      0.264168
  H      -2.602523     -4.138677     -0.796241
  H      -2.216167     -2.873493     -1.972171
  H      -1.772076     -2.720817      1.068151
  H      -0.527897     -2.904611     -0.173819
  H      -1.085785     -0.675950     -1.108480
  H      -2.784559      0.795561     -0.016134
  H      -3.151999     -0.479715      1.146341
  H      -3.585573     -0.618229     -1.897539
  H      -4.851437     -0.439009     -0.674863
  H       1.134797      1.714776      0.761081
  H      -0.252570      2.694973      2.357571
  H      -1.748034      2.161348      1.607967
  H      -1.066836      4.725763      1.421226
  H      -1.793045      3.926339      0.028067
  H       0.270583      5.265156     -0.598192
  H       1.226476      4.227234      0.458787
  H      -0.007927      3.585175     -2.242835
  H       1.547250      3.089423     -1.575109
  H       0.319481      1.057721     -1.584025
  H      -1.205127      1.837324     -1.186991
  H       1.150779     -2.131994      0.998721
  H       2.705154      0.431379      1.603965
  H       2.093974     -0.720710      2.796680
  H       4.529669     -1.101054      2.280715
  H       3.543390     -2.510675      1.865171
  H       5.153513     -2.051017      0.028802
  H       4.577396     -0.382444     -0.097190
  H       3.535636     -1.758831     -1.883819
  H       2.926161     -2.908318     -0.683493
  H       2.124154      0.045216     -0.923280
  H       1.121163     -1.337780     -1.380190
52
Coordinates from ORCA-job data/geom_opt/75806/75806 E -1046.107631920605
  C      -3.914002     -2.431084     -0.748544
  C      -2.523338     -3.035818     -0.961565
  C      -1.488030     -2.439352      0.000758
  C      -1.434364     -0.904170     -0.092328
  C      -2.840032     -0.309859      0.118830
  C      -3.869525     -0.903734     -0.849204
  P      -0.251235     -0.189004      1.182261
  C       0.066625      1.555457      0.533978
  C      -0.716948      2.585224      1.391016
  C      -0.869726      3.949163      0.685844
  C       0.338197      4.247813     -0.205754
  C       0.452472      3.210309     -1.344976
  C      -0.155450      1.844672     -0.958654
  C       1.361579     -1.070237      0.781449
  C       2.457585     -0.637587      1.773180
  C       3.736581     -1.466619      1.601890
  C       4.248560     -1.424966      0.158270
  C       3.158966     -1.850810     -0.831341
  C       1.887318     -1.008499     -0.659954
  H      -4.630003     -2.846222     -1.477764
  H      -4.284126     -2.716935      0.253373
  H      -2.557023     -4.132126     -0.843377
  H      -2.200066     -2.842186     -2.001071
  H      -1.738134     -2.730318      1.038001
  H      -0.498943     -2.873724     -0.214584
  H      -1.098240     -0.640088     -1.109911
  H      -2.815354      0.785808      0.011146
  H      -3.155706     -0.510240      1.158862
  H      -3.605421     -0.614037     -1.883185
  H      -4.865932     -0.474404     -0.649604
  H       1.141785      1.707743      0.733258
  H      -0.195632      2.709799      2.354468
  H      -1.714549      2.189911      1.644344
  H      -1.012213      4.745563      1.434315
  H      -1.781323      3.950154      0.062675
  H       0.277330      5.266789     -0.621023
  H       1.250409      4.225718      0.416068
  H      -0.052720      3.585250     -2.251273
  H       1.513483      3.078715     -1.617842
  H       0.272172      1.057330     -1.593590
  H      -1.237509      1.848264     -1.168060
  H       1.133808     -2.128032      1.009655
  H       2.699231      0.429383      1.612306
  H       2.081355     -0.717907      2.806290
  H       4.515546     -1.108903      2.296321
  H       3.524750     -2.515094      1.881525
  H       5.140441     -2.064574      0.048136
  H       4.570502     -0.394560     -0.082316
  H       3.528840     -1.772333     -1.867830
  H       2.912229     -2.915860     -0.665952
  H       2.120816      0.039154     -0.917309
  H       1.114967     -1.342937     -1.371216
52
Coordinates from ORCA-job data/geom_opt/75806/75806 E -1046.107659533776
  C      -3.927173     -2.409359     -0.744187
  C      -2.545664     -3.041249     -0.936341
  C      -1.508504     -2.448225      0.025911
  C      -1.427480     -0.915839     -0.090224
  C      -2.824219     -0.293380      0.098202
  C      -3.855294     -0.884907     -0.869426
  P      -0.244120     -0.200267      1.184723
  C       0.066606      1.547492      0.539884
  C      -0.730814      2.571260      1.391063
  C      -0.889550      3.933539      0.684463
  C       0.322686      4.241722     -0.197930
  C       0.454131      3.205194     -1.335852
  C      -0.145448      1.834653     -0.954435
  C       1.371722     -1.074345      0.777353
  C       2.467207     -0.643594      1.770478
  C       3.749141     -1.466501      1.592457
  C       4.258977     -1.412831      0.148565
  C       3.170065     -1.837657     -0.842026
  C       1.894972     -1.002060     -0.664331
  H      -4.644983     -2.824263     -1.471762
  H      -4.309589     -2.672091      0.259460
  H      -2.599301     -4.135031     -0.802963
  H      -2.210561     -2.868491     -1.975801
  H      -1.772724     -2.718473      1.065260
  H      -0.525072     -2.902545     -0.173557
  H      -1.076712     -0.672743     -1.107821
  H      -2.778238      0.799834     -0.026987
  H      -3.152664     -0.471061      1.138394
  H      -3.576799     -0.617049     -1.905522
  H      -4.845797     -0.435096     -0.686175
  H       1.139245      1.705372      0.748096
  H      -0.217058      2.700118      2.358033
  H      -1.726755      2.167420      1.637723
  H      -1.045196      4.729177      1.431125
  H      -1.796357      3.926566      0.054252
  H       0.257496      5.260299     -0.613521
  H       1.230086      4.227074      0.431196
  H      -0.046766      3.576284     -2.246116
  H       1.518308      3.081789     -1.600101
  H       0.294119      1.050596     -1.585261
  H      -1.225751      1.828082     -1.173070
  H       1.146091     -2.133731      1.000079
  H       2.704429      0.425164      1.615070
  H       2.092389     -0.731193      2.803493
  H       4.527555     -1.111069      2.288693
  H       3.541550     -2.517691      1.865030
  H       5.154187     -2.046783      0.032841
  H       4.575362     -0.379209     -0.085613
  H       3.538262     -1.752517     -1.878608
  H       2.928113     -2.904629     -0.682030
  H       2.122784      0.048288     -0.915959
  H       1.123106     -1.336041     -1.376229
52
Coordinates from ORCA-job data/geom_opt/75806/75806 E -1046.107664235356
  C      -3.928516     -2.414811     -0.738873
  C      -2.545599     -3.041814     -0.938114
  C      -1.506464     -2.447813      0.021582
  C      -1.430657     -0.914847     -0.090936
  C      -2.828664     -0.297632      0.104950
  C      -3.861864     -0.889688     -0.860305
  P      -0.244645     -0.198209      1.181813
  C       0.066844      1.550877      0.537889
  C      -0.736375      2.573205      1.385415
  C      -0.892611      3.935709      0.678473
  C       0.325485      4.246078     -0.195162
  C       0.464803      3.210989     -1.333741
  C      -0.136931      1.839803     -0.957381
  C       1.371340     -1.073711      0.774663
  C       2.466146     -0.644096      1.768857
  C       3.747415     -1.468659      1.592700
  C       4.259257     -1.416028      0.149332
  C       3.170937     -1.839801     -0.842547
  C       1.896564     -1.002586     -0.666475
  H      -4.648216     -2.830243     -1.464386
  H      -4.305921     -2.681258      0.265828
  H      -2.595072     -4.136244     -0.807771
  H      -2.215206     -2.865125     -1.978547
  H      -1.765910     -2.721204      1.061450
  H      -0.522316     -2.898332     -0.182438
  H      -1.084754     -0.667803     -1.109322
  H      -2.786394      0.796107     -0.016818
  H      -3.152084     -0.479715      1.146043
  H      -3.588104     -0.618287     -1.896866
  H      -4.853046     -0.443214     -0.672172
  H       1.138307      1.709411      0.752062
  H      -0.228146      2.701939      2.355376
  H      -1.733172      2.167688      1.626089
  H      -1.054890      4.730772      1.424451
  H      -1.794979      3.927732      0.041807
  H       0.262655      5.265342     -0.609647
  H       1.228612      4.230999      0.440239
  H      -0.030405      3.583022     -2.246802
  H       1.530711      3.088114     -1.591429
  H       0.306331      1.056510     -1.586479
  H      -1.215958      1.833397     -1.181863
  H       1.143893     -2.132748      0.997505
  H       2.704750      0.424456      1.613092
  H       2.089553     -0.730518      2.801371
  H       4.525371     -1.114340      2.290139
  H       3.537989     -2.519639      1.865155
  H       5.154136     -2.050800      0.034769
  H       4.577082     -0.382671     -0.084651
  H       3.540419     -1.755797     -1.878844
  H       2.927404     -2.906524     -0.682364
  H       2.125936      0.047478     -0.917840
  H       1.124957     -1.335468     -1.379283
52
Coordinates from ORCA-job data/geom_opt/75806/75806 E -1046.107665684008
  C      -3.926808     -2.414289     -0.741578
  C      -2.543617     -3.040548     -0.940950
  C      -1.505292     -2.447158      0.019896
  C      -1.430088     -0.914095     -0.091104
  C      -2.828364     -0.297319      0.104289
  C      -3.860732     -0.889092     -0.861993
  P      -0.245251     -0.198205      1.183061
  C       0.067061      1.550606      0.539151
  C      -0.733659      2.573733      1.387955
  C      -0.891190      3.935735      0.680577
  C       0.325164      4.245499     -0.195614
  C       0.462303      3.209877     -1.333795
  C      -0.138920      1.838986     -0.955827
  C       1.370620     -1.074266      0.776711
  C       2.466309     -0.641358      1.768426
  C       3.747904     -1.465455      1.592657
  C       4.257806     -1.415856      0.148536
  C       3.168617     -1.843155     -0.840785
  C       1.893742     -1.006640     -0.665280
  H      -4.646206     -2.829534     -1.467446
  H      -4.304264     -2.681531      0.262854
  H      -2.592784     -4.135131     -0.812036
  H      -2.212925     -2.862569     -1.981031
  H      -1.765220     -2.721674      1.059297
  H      -0.520798     -2.896946     -0.184056
  H      -1.083119     -0.665649     -1.108784
  H      -2.786128      0.796458     -0.016978
  H      -3.152549     -0.480029      1.144989
  H      -3.586454     -0.616950     -1.898173
  H      -4.852194     -0.443234     -0.674084
  H       1.139081      1.707425      0.751793
  H      -0.222791      2.703091      2.356428
  H      -1.729938      2.168848      1.631658
  H      -1.052129      4.731278      1.426294
  H      -1.794856      3.927347      0.045775
  H       0.261720      5.264534     -0.610498
  H       1.229470      4.230807      0.438102
  H      -0.034396      3.581637     -2.246121
  H       1.527726      3.086664     -1.593207
  H       0.303217      1.055329     -1.585299
  H      -1.218273      1.832506     -1.178810
  H       1.143316     -2.132593      1.002811
  H       2.703963      0.426923      1.609571
  H       2.091169     -0.725465      2.801620
  H       4.526485     -1.109055      2.288287
  H       3.539572     -2.515900      1.867859
  H       5.153172     -2.049948      0.034304
  H       4.574365     -0.382799     -0.088320
  H       3.536733     -1.761747     -1.877745
  H       2.926256     -2.909629     -0.677437
  H       2.121686      0.042921     -0.919915
  H       1.121488     -1.342383     -1.376038
