! RI BP86 def2-SVP D3BJ TIGHTSCF Opt
%pal
nprocs 6
end

* xyz 0 1
C     -2.923798   -3.507115    0.172678
C     -1.784779   -3.103210    0.863259
C     -1.023132   -2.026815    0.396558
C     -1.387953   -1.335052   -0.768095
C     -2.541489   -1.760369   -1.451289
C     -3.303197   -2.835626   -0.985283
P     -0.462648    0.076216   -1.455781
C     -1.274802    1.539507   -0.734402
C     -2.235571    1.487916    0.286084
C     -2.816136    2.657146    0.788979
C     -2.448646    3.898417    0.277664
C     -1.501566    3.972816   -0.738566
C     -0.922256    2.804165   -1.240777
C      1.148527   -0.002552   -0.605913
C      2.116775   -0.887768   -1.114398
C      3.378665   -1.004603   -0.519906
C      3.698510   -0.232290    0.599299
C      2.748262    0.653207    1.115595
C      1.487153    0.766366    0.517406
C      5.019414   -0.317986    1.267105
O      5.366561    0.316451    2.246014
O      5.847402   -1.197950    0.676632
H     -3.514164   -4.343840    0.536471
H     -1.484753   -3.624643    1.768745
H     -0.145712   -1.740240    0.970122
H     -2.862895   -1.252198   -2.359072
H     -4.191610   -3.146091   -1.529000
H     -2.551618    0.541060    0.716027
H     -3.557888    2.593565    1.581194
H     -2.901556    4.805355    0.669190
H     -1.211950    4.938790   -1.143903
H     -0.184010    2.892730   -2.036262
H      1.895676   -1.504110   -1.985085
H      4.099789   -1.701022   -0.940749
H      2.981658    1.262129    1.987240
H      0.778776    1.464471    0.957390
H      6.664962   -1.146827    1.214830
*