43
Coordinates from ORCA-job data/geom_opt/80271/80271 E -1153.090751467962
  C           2.77153536127879     -0.10804070697949     -2.01456309665861
  C           2.50659873040586     -1.04740226065109     -0.86559065454701
  C           3.52363851200620     -1.89418527394806     -0.40228618893430
  C           3.31897326322377     -2.76253372783732      0.67263392530782
  C           2.07859331460814     -2.79065766959446      1.31206640218799
  C           1.05442223496776     -1.94995264702081      0.87019937457048
  C           1.24839549746982     -1.07845029166333     -0.21322925499934
  P          -0.10939402767919     -0.01126302548824     -0.87178500936444
  C           0.28881647597124      1.63359670732534     -0.12878827276365
  C           1.34723390323027      1.80740622208054      0.77703282219267
  C           1.66617060374011      3.07076232242103      1.28011862597038
  C           0.91885653916533      4.18075763189047      0.88313286960829
  C          -0.13980813099225      4.01708488911739     -0.01336947181769
  C          -0.47177915975488      2.75873313341681     -0.53532545856421
  C          -1.63591323629421      2.61845717117269     -1.48278384732086
  C          -1.55931875211689     -0.55631533521541      0.13647643846886
  C          -2.02655191504120      0.18354999635919      1.23438976347899
  C          -3.15960584209303     -0.21814630830232      1.94551611383217
  C          -3.83802684570618     -1.37736574137654      1.56571835582121
  C          -3.37739015219129     -2.12343071392071      0.47834989563371
  C          -2.24633236637085     -1.73352863174727     -0.25298757649181
  C          -1.76810575929854     -2.57685888425369     -1.40767313008536
  H           2.79033010512843      0.94092465237528     -1.67343090023843
  H           1.97793961111387     -0.17420232016156     -2.77654554586353
  H           3.73747569095544     -0.32541487804727     -2.49327383001743
  H           4.49661915234165     -1.87218547707794     -0.90149874845775
  H           4.12890428466019     -3.41535609019118      1.00825981502129
  H           1.90574891960958     -3.46227295741004      2.15690801102902
  H           0.08767246585227     -1.96768562814054      1.37684883397473
  H           1.92746402176779      0.93935142386072      1.09559261811977
  H           2.49477976867090      3.18353508284229      1.98396274018255
  H           1.15784996466721      5.17502140720664      1.26929752463287
  H          -0.72543714464401      4.88756816763111     -0.32265002556259
  H          -1.35898985642520      2.03024593488881     -2.37281414218371
  H          -2.00314965379456      3.60153026845214     -1.81159907762219
  H          -2.47505950582019      2.08541364313414     -1.00448576940216
  H          -1.49297409349477      1.08598196559548      1.53862587442231
  H          -3.50688834204360      0.37325962379851      2.79659847409637
  H          -4.72617430497215     -1.70296417057840      2.11342047027984
  H          -3.90930119983463     -3.03213068941204      0.18217476032347
  H          -1.57087661957868     -1.95974107144319     -2.29925929265622
  H          -0.81992502195512     -3.08522436211570     -1.16327191552457
  H          -2.50701449073319     -3.34787338099201     -1.67011250007894
